Measurement: Raman, 532 nm, unoriented, Raman Data Processed
Mineral: Abramovite
Rruff sample: R070037
Ideal chemistry: Pb^2+^_2_Sn^4+^In^3+^Bi^3+^S^2-^_7_
Locality: Kudryaviy Volcano, Iturup Island, Kurilian Archipelago, Russia
Source: Michael Scott
Description: Dark gray metallic twisted and distorted fibers in a radiating aggregate, co-type sample.
Raman shift (cm-1)	intensity
150.182	0
153.557	165.69
156.932	0.74707
160.307	63.751
163.681	169.368
167.056	220.759
170.431	183.068
173.806	73.4326
177.181	14.0713
180.555	92.2978
183.93	66.5019
187.305	163.346
190.68	232.491
194.055	268.093
197.43	198.24
200.804	172.45
204.179	75.4819
207.554	36.2915
210.929	136.169
214.304	209.005
217.679	262.707
221.053	325.494
224.428	288.123
227.803	380.598
231.178	352.67
234.553	311.69
237.927	416.258
241.302	368.281
244.677	373.44
248.052	462.96
251.427	350.908
254.801	412.687
258.176	496.899
261.551	500.613
264.926	517.848
268.301	509.944
271.675	576.205
275.05	430.436
278.425	434.448
281.8	389.678
285.175	348.555
288.55	329.62
291.924	304.934
295.299	296.407
298.674	337.025
302.049	277.934
305.424	223.345
308.798	157.376
312.173	78.9888
315.548	80.1484
318.923	121.036
322.298	81.7373
325.673	47.2534
329.047	1.30908
332.422	109.535
335.797	17.4248
339.172	65.688
342.547	4.42285
345.921	34.8667
349.296	9.74658
352.671	8.31104
356.046	35.521
359.421	33.2456
362.796	5.01074
366.17	37.5552
369.545	74.7788
372.92	78.6231
376.295	50.269
379.67	48.2935
383.044	87.7109
386.419	70.6055
389.794	22.2114
393.169	2.76953
396.544	47.6284
399.918	5.38525
403.293	2.29981
406.668	21.4067
410.043	80.615
413.418	76.4756
416.793	103.687
420.167	89.4016
423.542	114.051
426.917	109.855
430.292	180.623
433.667	203.878
437.041	209.777
440.416	197.196
443.791	168.418
447.166	118.456
450.541	99.2073
453.915	23.6167
457.29	98.668
460.665	68.4951
464.04	125.913
467.415	86.3638
470.789	102.094
474.164	103.594
477.539	121.874
480.914	62.5825
484.289	91.1187
487.664	97.3428
491.038	159.397
494.413	111.492
497.788	135.822
501.163	228.032
504.538	248.128
507.913	223.843
511.287	223.973
514.662	224.721
518.037	170.504
521.412	250.448
524.787	230.895
528.161	212.206
531.536	233.548
534.911	232.043
538.286	140.493
541.661	266.74
545.035	162.605
548.41	164.597
551.785	78.0041
555.16	121.009
558.535	78.0112
561.909	70.0996
565.284	78.792
568.659	68.4731
572.034	62.5012
575.409	81.3262
578.784	16.7417
582.158	9.19214
585.533	34.4397
588.908	0.463623
592.283	33.5361
595.658	29.0418
599.032	65.5142
602.407	41.5754
605.782	54.8389
609.157	1.98096
612.532	70.3696
615.907	24.0703
619.281	3.51074
622.656	36.0183
626.031	62.2185
629.406	8.74829
632.781	76.7537
636.155	43.9707
639.53	123.179
642.905	70.5593
646.28	91.354
649.655	66.8127
653.029	10.3511
656.404	67.6572
659.779	46.575
663.154	120.6
666.529	91.9526
669.904	117.19
673.278	84.0896
676.653	86.6279
680.028	115.734
683.403	129.893
686.778	97.7734
690.152	125.701
693.527	69.0264
696.902	79.7502
700.277	10.6323
703.652	87.3665
707.027	42.4241
710.401	97.7114
713.776	56.2864
717.151	93.0596
720.526	67.4714
723.901	28.8547
727.275	59.7297
730.65	78.7671
734.025	39.562
737.4	15.9956
740.775	94.4192
744.149	34.8784
747.524	64.7798
750.899	20.2727
754.274	18.1982
757.649	101.678
761.024	75.3201
764.398	50.1008
767.773	26.499
771.148	42.0562
774.523	58.4522
777.898	108.023
781.272	57.0852
784.647	82.6816
788.022	13.3152
791.397	47.2852
794.772	9.67041
798.146	62.9009
801.521	55.3118
804.896	89.8579
808.271	148.143
811.646	72.4387
815.02	12.8225
818.395	48.2839
821.77	82.5994
825.145	36.615
828.52	20.7021
831.895	21.0456
835.269	67.0232
838.644	9.24463
842.019	108.239
845.394	60.4949
848.769	78.0727
852.144	29.9084
855.518	107.243
858.893	1.43335
862.268	30.9873
865.643	34.4055
869.018	63.3994
872.392	11.596
875.767	53.648
879.142	26.5337
882.517	35.9001
885.892	60.449
889.266	84.2217
892.641	59.6956
896.016	39.7146
899.391	9.06836
902.766	28.0071
906.14	13.7004
909.515	45.971
912.89	7.99976
916.265	38.7507
919.64	31.3862
923.015	50.8215
926.389	127.422
929.764	61.2847
933.139	90.3337
936.514	116.797
939.889	62.2747
943.263	98.4966
946.638	117.571
950.013	212.913
953.388	303.617
956.763	356.803
960.138	387.835
963.512	469.361
966.887	502.48
970.262	451.398
973.637	392.814
977.012	323.388
980.386	229.924
983.761	132.188
987.136	113.052
990.511	134.018
993.886	131.895
997.26	100.944
1000.63	38.429
1004.01	86.5205
1007.38	77.4448
1010.76	48.6389
1014.13	11.4263
1017.51	92.9719
1020.88	75.0876
1024.26	28.4807
1027.63	48.843
1031.01	28.0227
1034.38	1.02905
1037.76	12.5752
1041.13	2.61548
1044.51	44.7932
1047.88	35.3398
1051.26	68.646
1054.63	4.11035
1058.01	24.3223
1061.38	63.4155
1064.76	49.1743
1068.13	69.3538
1071.51	4.17334
1074.88	20.8306
1078.26	54.6411
1081.63	55.4314
1085.01	18.9541
1088.38	36.1096
1091.76	5.28638
1095.13	22.8013
1098.51	26.3377
1101.88	57.5549
1105.26	45.4316
1108.63	10.8586
1112	23.0288
1115.38	60.4119
1118.75	83.1179
1122.13	63.5286
1125.5	9.72778
1128.88	58.7366
1132.25	5.21045
1135.63	76.9895
1139	46.1641
1142.38	68.9023
1145.75	22.1692
1149.13	69.0159
1152.5	115.064
1155.88	142.605
1159.25	9.39673
1162.63	45.2664
1166	35.4185
1169.38	29.2639
1172.75	36.3086
1176.13	103.275
1179.5	73.8066
1182.88	98.0488
1186.25	104.718
1189.62	65.4924
1193	87.8159
1196.38	73.6394
1199.75	75.4797
1203.12	14.2056
1206.5	32.0344
1209.87	73.7434
1213.25	91.1309
1216.62	43.4729
1220	86.2605
1223.37	12.9087
1226.75	35.5337
1230.12	86.6257
1233.5	38.0461
1236.87	77.1985
1240.25	31.6855
1243.62	38.3567
1247	98.8919
1250.37	67.0847
1253.75	39.2097
1257.12	35.6519
1260.5	4.39307
1263.87	79.6885
1267.25	56.3901
1270.62	49.7573
1273.99	80.9023
1277.37	95.4319
1280.74	68.1714
1284.12	13.7852
1287.49	11.8921
1290.87	28.0095
1294.24	9.04419
1297.62	61.9753
1300.99	39.0408
1304.37	18.9004
1307.74	8.30347
1311.12	7.91162
