Measurement: Raman, 780 nm, unoriented, Raman Data Processed
Mineral: Acanthite
Rruff sample: R070578
Ideal chemistry: Ag^1+^_2_S^2-^
Locality: Echo Bay mine, Port Radium, Northwest Territories, Canada
Source: Royal Ontario Museum
Description: Dark gray metallic fragment
Raman shift (cm-1)	intensity
146.388	0
149.281	32.3131
152.173	12.8288
155.066	4.08572
157.959	16.2254
160.851	40.9976
163.744	36.8056
166.637	30.7802
169.53	30.0468
172.422	1.78888
175.315	32.41
178.208	19.4113
181.1	0.465057
183.993	17.4168
186.886	30.7293
189.779	33.6951
192.671	32.9028
195.564	17.7022
198.457	14.7844
201.349	44.5061
204.242	34.0777
207.135	30.9658
210.027	14.384
212.92	25.1455
215.813	15.2172
218.706	0.163406
221.598	36.2942
224.491	24.4622
227.384	44.9207
230.276	12.586
233.169	28.8314
236.062	41.2683
238.954	40.9626
241.847	32.0388
244.74	40.3077
247.632	33.9155
250.525	25.2883
253.418	33.9854
256.311	23.7445
259.203	37.9967
262.096	27.6899
264.989	33.1234
267.881	6.82065
270.774	25.7164
273.667	21.4348
276.56	25.4654
279.452	10.8461
282.345	14.4466
285.238	16.8925
288.13	7.58964
291.023	10.0839
293.916	34.1385
296.808	12.4012
299.701	11.1695
302.594	1.06741
305.486	2.24348
308.379	10.9459
311.272	2.07327
314.165	3.97903
317.057	13.4446
319.95	12.0074
322.843	6.22314
325.735	3.19876
328.628	5.64739
331.521	12.6244
334.413	5.16336
337.306	12.2601
340.199	13.5135
343.092	25.5733
345.984	19.0126
348.877	29.0998
351.77	21.7555
354.662	25.297
357.555	2.79602
360.448	27.8189
363.341	20.6467
366.233	7.9382
369.126	16.1324
372.019	12.4002
374.911	17.0966
377.804	15.4196
380.697	1.56153
383.589	26.5286
386.482	9.0491
389.375	5.27063
392.268	14.5454
395.16	9.00713
398.053	4.21236
400.946	10.5498
403.838	6.61459
406.731	5.3293
409.624	8.67832
412.517	14.0754
415.409	13.1245
418.302	6.74628
421.195	13.4177
424.087	18.4651
426.98	14.8424
429.873	5.27714
432.765	8.64482
435.658	5.81982
438.551	18.5339
441.443	3.64707
444.336	16.665
447.229	20.7683
450.122	8.81456
453.014	10.2176
455.907	34.671
458.8	7.75182
461.692	27.5095
464.585	23.2156
467.478	19.302
470.37	8.58738
473.263	14.1892
476.156	5.1884
479.049	22.4733
481.941	16.6048
484.834	7.64397
487.727	9.39022
490.619	11.2953
493.512	12.3003
496.405	8.21737
499.298	12.7455
502.19	1.57896
505.083	12.7065
507.976	3.28581
510.868	1.03429
513.761	3.97781
516.654	13.6042
519.546	10.5467
522.439	2.74036
525.332	9.17283
528.225	31.4976
531.117	7.05479
534.01	19.565
536.903	25.4531
539.795	10.3807
542.688	17.7276
545.581	11.3081
548.473	1.87543
551.366	9.0015
554.259	24.9402
557.152	17.2629
560.044	13.3256
562.937	20.2716
565.83	18.8479
568.722	20.0849
571.615	10.6471
574.508	16.0969
577.4	15.2634
580.293	2.84551
583.186	2.74827
586.079	18.2084
588.971	25.4208
591.864	10.3572
594.757	12.3985
597.649	22.2922
600.542	1.10197
603.435	21.872
606.327	8.03267
609.22	4.71621
612.113	5.23119
615.006	11.7111
617.898	1.18706
620.791	0.984043
623.684	16.4627
626.576	3.03629
629.469	10.5677
632.362	23.356
635.255	15.9139
638.147	26.8532
641.04	13.2551
643.933	18.244
646.825	7.66486
649.718	2.49041
652.611	9.57643
655.503	4.41179
658.396	9.92668
661.289	21.3124
664.182	13.9763
667.074	1.83219
669.967	6.10703
672.86	20.9781
675.752	3.39514
678.645	9.66681
681.538	14.7026
684.43	4.72241
687.323	11.4873
690.216	12.2258
693.109	18.9758
696.001	15.3072
698.894	13.7385
701.787	1.60161
704.679	7.73872
707.572	18.5125
710.465	8.74367
713.357	10.8463
716.25	1.6378
719.143	11.3864
722.035	20.572
724.928	1.50275
727.821	22.2328
730.714	13.2929
733.606	22.2325
736.499	6.45843
739.392	6.51739
742.284	20.4374
745.177	23.9533
748.07	13.338
750.962	22.2783
753.855	6.25613
756.748	0.720106
759.641	21.8157
762.533	23.9609
765.426	3.11895
768.319	15.1706
771.211	8.99168
774.104	6.28999
776.997	10.606
779.889	6.89864
782.782	10.715
785.675	3.24591
788.568	1.66062
791.46	18.4173
794.353	10.7121
797.246	10.608
800.138	6.69986
803.031	25.2465
805.924	9.55216
808.817	9.24742
811.709	6.51869
814.602	22.8032
817.495	6.23858
820.387	14.4672
823.28	14.5886
826.173	8.94979
829.066	4.43684
831.958	14.195
834.851	25.3803
837.744	25.8601
840.636	13.7125
843.529	1.87854
846.422	9.32167
849.314	21.7721
852.207	17.9566
855.1	12.3972
857.992	20.0161
860.885	21.941
863.778	4.85014
866.671	11.1047
869.563	16.1236
872.456	18.1836
875.349	21.4031
878.241	10.239
881.134	12.9977
884.027	15.1463
886.919	13.9623
889.812	12.4685
892.705	10.6409
895.598	32.2978
898.49	8.89895
901.383	8.58108
904.276	5.63412
907.168	20.7655
910.061	23.419
912.954	7.33791
915.846	1.60262
918.739	8.6545
921.632	12.6789
924.525	2.34
927.417	14.3265
930.31	0.097437
933.203	8.80763
936.095	9.84141
938.988	4.8424
941.881	8.6529
944.774	7.53799
947.666	4.31548
950.559	10.4485
953.452	9.28808
956.344	5.24848
959.237	26.8176
962.13	11.1201
965.022	1.15648
967.915	5.61338
970.808	11.6769
973.701	3.06678
976.593	7.81649
979.486	14.9895
982.379	8.59217
985.271	12.9872
988.164	2.11003
991.057	14.9926
993.949	4.04807
996.842	23.2852
999.735	13.7763
1002.63	12.1576
1005.52	19.3078
1008.41	15.7976
1011.31	14.4417
1014.2	8.4668
1017.09	7.33174
1019.98	4.59592
1022.88	19.6348
1025.77	4.90512
1028.66	8.38713
1031.56	2.35353
1034.45	24.8344
1037.34	8.28082
1040.23	2.447
1043.12	5.33297
1046.02	17.0956
1048.91	1.22105
1051.8	3.54821
1054.7	3.29588
1057.59	11.8447
1060.48	5.49833
1063.37	17.1521
1066.27	1.76196
1069.16	4.8778
1072.05	14.7639
1074.94	14.6121
1077.84	18.7551
1080.73	3.65428
1083.62	16.547
1086.52	6.77994
1089.41	13.0153
1092.3	6.58434
1095.19	0.87384
1098.09	11.3616
1100.98	6.7467
1103.87	11.9079
1106.77	5.23641
1109.66	0.458004
1112.55	9.84434
1115.44	7.22406
1118.34	12.2334
1121.23	26.457
1124.12	8.32179
1127.01	3.39236
1129.91	13.5978
1132.8	7.45403
1135.69	3.19421
1138.58	9.73288
1141.48	5.12535
1144.37	12.0048
1147.26	7.07743
1150.15	21.8373
1153.05	9.1623
1155.94	16.4079
1158.83	14.937
1161.73	3.53323
1164.62	19.2116
1167.51	13.877
1170.4	15.6032
1173.3	9.17816
1176.19	17.9091
1179.08	8.7028
1181.97	17.0229
1184.87	9.23248
1187.76	13.6948
1190.65	15.126
1193.55	17.0844
1196.44	6.03209
1199.33	29.1772
1202.22	16.1636
1205.12	22.0386
1208.01	13.1288
1210.9	14.3257
1213.8	5.30388
1216.69	20.7516
1219.58	16.7716
1222.47	8.19798
1225.37	11.6346
1228.26	16.9453
1231.15	17.0262
1234.04	20.6722
1236.94	16.9275
1239.83	19.0761
1242.72	10.4134
1245.62	31.4031
1248.51	22.1339
1251.4	21.7387
1254.29	0.598759
1257.18	21.2175
1260.08	23.8451
1262.97	5.65713
1265.86	13.3282
1268.76	10.8542
1271.65	11.9357
1274.54	3.36794
1277.43	3.5581
