Measurement: Raman, 532 nm, unoriented, Raman Data Processed
Mineral: Acanthite
Rruff sample: R070578
Ideal chemistry: Ag^1+^_2_S^2-^
Locality: Echo Bay mine, Port Radium, Northwest Territories, Canada
Source: Royal Ontario Museum
Description: Dark gray metallic fragment
Raman shift (cm-1)	intensity
142.898	0
145.791	0.305389
148.684	41.9482
151.576	18.8903
154.469	33.4736
157.362	18.6397
160.254	44.2915
163.147	6.4747
166.04	11.3381
168.933	20.3293
171.825	15.9829
174.718	11.4602
177.611	22.2053
180.503	4.25522
183.396	36.9711
186.289	20.0539
189.181	21.0437
192.074	34.9809
194.967	14.1735
197.859	38.141
200.752	15.8533
203.645	14.1669
206.538	25.2584
209.43	18.9744
212.323	35.9238
215.216	30.2157
218.108	37.7625
221.001	33.8548
223.894	46.797
226.786	51.9112
229.679	35.3043
232.572	49.0897
235.465	64.7192
238.357	45.714
241.25	60.0079
244.143	76.0891
247.035	44.1844
249.928	65.7814
252.821	46.4541
255.713	55.701
258.606	33.9866
261.499	17.2889
264.392	53.6932
267.284	60.1386
270.177	20.5203
273.07	18.5377
275.962	30.4446
278.855	32.983
281.748	18.7732
284.64	13.31
287.533	45.7549
290.426	9.06281
293.318	0.804337
296.211	29.6689
299.104	32.0369
301.997	28.6475
304.889	15.9315
307.782	9.12237
310.675	2.67731
313.567	7.8618
316.46	6.94394
319.353	28.8708
322.245	6.17442
325.138	7.71838
328.031	12.8009
330.924	8.92483
333.816	20.8331
336.709	20.2057
339.602	9.83047
342.494	15.3876
345.387	28.8564
348.28	28.5717
351.173	10.3547
354.065	13.149
356.958	22.3371
359.851	15.4447
362.743	12.5841
365.636	28.9008
368.529	23.1309
371.421	20.6293
374.314	22.1211
377.207	32.1649
380.099	22.6679
382.992	19.0179
385.885	17.881
388.778	23.6119
391.67	1.77788
394.563	28.4016
397.456	12.9818
400.348	22.7181
403.241	4.19269
406.134	3.50796
409.026	17.0147
411.919	26.2582
414.812	23.1055
417.704	18.7943
420.597	17.2478
423.49	22.6534
426.383	20.0225
429.275	3.94316
432.168	34.7393
435.061	4.91202
437.953	25.6206
440.846	34.1017
443.739	15.1233
446.632	19.3314
449.524	21.4547
452.417	35.7922
455.31	34.6049
458.202	36.6358
461.095	9.96101
463.988	22.1083
466.88	23.3443
469.773	30.733
472.666	23.4618
475.558	35.7061
478.451	4.53602
481.344	23.0033
484.237	19.0818
487.129	3.41781
490.022	16.5139
492.915	27.961
495.807	19.8543
498.7	2.77279
501.593	10.8549
504.486	4.55171
507.378	8.79819
510.271	3.14388
513.164	0.829117
516.056	8.30229
518.949	2.50836
521.842	4.1434
524.734	16.8846
527.627	15.9459
530.52	1.86626
533.413	9.16508
536.305	12.5173
539.198	13.7434
542.091	1.24609
544.983	22.3234
547.876	1.96065
550.769	5.62982
553.661	1.5267
556.554	6.64137
559.447	16.5109
562.34	0.525383
565.232	5.20135
568.125	10.136
571.018	2.75503
573.91	6.772
576.803	20.1325
579.696	11.4576
582.588	9.93448
585.481	14.2722
588.374	7.44942
591.266	11.1779
594.159	16.0863
597.052	5.61213
599.944	3.62379
602.837	3.07229
605.73	6.33485
608.623	4.56471
611.515	7.96653
614.408	4.18424
617.301	2.25409
620.193	18.3162
623.086	3.86162
625.979	13.3458
628.871	29.2138
631.764	22.8913
634.657	27.4393
637.55	8.75667
640.442	15.6266
643.335	14.4652
646.228	9.31319
649.12	15.184
652.013	24.1555
654.906	2.66543
657.798	27.6902
660.691	14.8479
663.584	9.09483
666.477	7.0278
669.369	12.8622
672.262	0.484444
675.155	15.193
678.047	6.1136
680.94	12.7427
683.833	11.8314
686.726	16.7637
689.618	30.8831
692.511	11.5919
695.404	10.5656
698.296	6.74433
701.189	12.3771
704.082	15.8751
706.974	12.6375
709.867	5.66051
712.76	8.8584
715.653	19.6345
718.545	12.919
721.438	12.0318
724.331	0.500618
727.223	13.0085
730.116	6.75612
733.009	7.51794
735.901	7.02551
738.794	14.8511
741.687	18.2661
744.58	11.3151
747.472	11.8417
750.365	12.7371
753.258	15.2914
756.15	18.3181
759.043	18.7977
761.936	14.2365
764.828	12.5572
767.721	5.515
770.614	14.4574
773.506	11.2527
776.399	2.90894
779.292	10.6713
782.184	3.27063
785.077	10.6938
787.97	3.77184
790.863	3.99239
793.755	21.5086
796.648	17.7638
799.541	8.89215
802.433	22.5609
805.326	10.2454
808.219	5.48043
811.111	2.58225
814.004	6.34961
816.897	2.3888
819.79	5.40857
822.682	18.8389
825.575	13.9755
828.468	4.89126
831.36	15.0291
834.253	11.4386
837.146	17.0482
840.038	7.30406
842.931	11.9654
845.824	16.3792
848.717	16.2131
851.609	1.01698
854.502	2.04672
857.395	9.45947
860.287	5.4027
863.18	9.0644
866.073	2.00057
868.966	7.20113
871.858	7.71807
874.751	13.2569
877.644	15.691
880.536	15.9222
883.429	4.79447
886.322	15.4836
889.214	24.1674
892.107	16.994
895	20.9764
897.893	12.422
900.785	1.02932
903.678	2.18018
906.571	9.19242
909.463	17.9947
912.356	24.5837
915.249	6.28761
918.141	9.11473
921.034	10.8526
923.927	1.94213
926.819	7.24115
929.712	16.7536
932.605	5.07492
935.497	3.34589
938.39	2.2566
941.283	10.4556
944.176	7.99038
947.068	4.31438
949.961	16.1275
952.854	6.43338
955.746	6.16824
958.639	12.7398
961.532	2.17607
964.424	14.5488
967.317	18.2179
970.21	4.88225
973.103	1.0507
975.995	7.35919
978.888	8.18106
981.781	8.97823
984.673	22.2013
987.566	4.77707
990.459	10.8763
993.351	11.9197
996.244	13.2567
999.137	3.4536
1002.03	16.5439
1004.92	13.9868
1007.82	4.17823
1010.71	17.5356
1013.6	2.47576
1016.49	6.2404
1019.39	2.46304
1022.28	9.6534
1025.17	1.77108
1028.06	23.3576
1030.96	12.5431
1033.85	9.71698
1036.74	17.6494
1039.63	24.7778
1042.53	24.5212
1045.42	13.2723
1048.31	17.9197
1051.2	23.4488
1054.1	18.076
1056.99	32.0846
1059.88	11.8083
1062.78	18.2224
1065.67	7.3622
1068.56	3.67171
1071.45	18.3111
1074.35	7.91176
1077.24	17.9671
1080.13	21.9959
1083.03	9.57223
1085.92	21.696
1088.81	12.6428
1091.7	6.12513
1094.6	10.4733
1097.49	17.8674
1100.38	9.37672
1103.27	4.04784
1106.17	18.4871
1109.06	14.4977
1111.95	26.4769
1114.85	3.03982
1117.74	1.78227
1120.63	15.968
1123.52	8.17066
1126.42	11.5908
1129.31	12.7043
1132.2	14.875
1135.09	2.22049
1137.99	7.6132
1140.88	11.4416
1143.77	12.4247
1146.66	3.96463
1149.56	12.5455
1152.45	18.3038
1155.34	11.0806
1158.23	15.6972
1161.13	19.9823
1164.02	6.4387
1166.91	10.706
1169.81	9.98756
1172.7	5.87247
1175.59	17.5638
1178.48	1.68465
1181.38	7.04855
1184.27	16.4984
1187.16	15.7279
1190.06	22.1767
1192.95	2.05988
1195.84	4.7673
1198.73	17.5164
1201.63	7.2005
1204.52	9.3981
1207.41	6.71439
1210.3	15.5907
1213.2	9.99225
1216.09	13.902
1218.98	6.02651
1221.88	14.961
1224.77	16.1163
1227.66	22.5258
1230.55	5.38656
1233.44	18.3727
1236.34	10.3707
1239.23	5.48355
1242.12	0.759132
1245.02	4.92136
1247.91	10.88
1250.8	12.7734
1253.69	3.1564
1256.59	19.7956
1259.48	23.5266
1262.37	7.28097
1265.27	12.8333
1268.16	1.66561
1271.05	22.5992
1273.94	20.8299
1276.84	6.7852
1279.73	6.24258
1282.62	5.61146
1285.51	0
