Measurement: Raman, 785 nm, unoriented, Raman Data Processed
Mineral: Adamsite-(Y)
Rruff sample: R070360
Ideal chemistry: NaY^3+^(CO_3_)_2_6H_2_O
Locality: Mont Saint-Hilaire, Rouville County, Quebec, Canada
Source: Michael Scott
Description: Aggregates of colorless acicular crystals associated with polylithionite and colorless prismatic leifite
Raman shift (cm-1)	intensity
244.923	0
247.334	95.9023
249.745	294.019
252.155	43.5898
254.566	7.34375
256.976	77.1602
259.387	255.258
261.798	187.637
264.208	292.312
266.619	211.477
269.029	85.7031
271.44	134.453
273.85	109.996
276.261	6.54297
278.672	20.2031
281.082	130.148
283.493	302.277
285.903	323.125
288.314	241.863
290.724	211.801
293.135	242.793
295.546	113.402
297.956	95.6094
300.367	239.461
302.777	344.293
305.188	298.824
307.599	366.66
310.009	318.723
312.42	251.348
314.83	271.914
317.241	156.008
319.651	284.766
322.062	98.0898
324.473	119.488
326.883	248.352
329.294	262.941
331.704	377.852
334.115	261.273
336.526	298.883
338.936	168.969
341.347	193.406
343.757	178.082
346.168	206.031
348.579	197.246
350.989	305.008
353.4	405.586
355.81	390.356
358.221	337.457
360.631	190.301
363.042	161.852
365.452	280.316
367.863	106.754
370.274	211.086
372.684	285.809
375.095	233.504
377.505	341.625
379.916	371.316
382.327	231.918
384.737	100.363
387.148	184.078
389.558	92.082
391.969	245.152
394.38	279.977
396.79	339.5
399.201	277.883
401.611	335.965
404.022	162.668
406.433	7.12109
408.843	45.8789
411.254	81.4102
413.664	46.5508
416.075	182.84
418.485	104.051
420.896	123.293
423.307	158.648
425.717	136.953
428.128	84.5312
430.538	75.2344
432.949	78.1289
435.36	60.1953
437.77	35.293
440.181	75.0625
442.591	72.6133
445.002	79.3906
447.412	51.7656
449.823	47.7539
452.234	26.6953
454.644	11.0117
457.055	47.0078
459.465	27.3828
461.876	152.719
464.286	186.383
466.697	99.582
469.108	98.9297
471.518	206.508
473.929	185.277
476.339	59.4453
478.75	1.94922
481.161	55.2969
483.571	90.918
485.982	162.043
488.392	251.195
490.803	211.742
493.214	280.961
495.624	184.422
498.035	384.379
500.445	408.394
502.856	336.594
505.266	157.789
507.677	136.723
510.088	335.258
512.498	185.137
514.909	307.34
517.319	164.684
519.73	111.273
522.14	22.207
524.551	16.4883
526.962	33.8867
529.372	402.816
531.783	152.391
534.193	79.9531
536.604	121.34
539.015	0.257813
541.425	2.53516
543.836	275.316
546.246	27.375
548.657	162.598
551.067	105.914
553.478	132.184
555.889	55.8203
558.299	186.172
560.71	174.141
563.12	258.586
565.531	126.754
567.942	240.125
570.352	24.2695
572.763	129.883
575.173	156.703
577.584	297.055
579.994	212.832
582.405	273.949
584.816	101.391
587.226	253.625
589.637	220.215
592.047	242.094
594.458	125.004
596.869	193.391
599.279	185.891
601.69	249.32
604.1	307.332
606.511	259.125
608.921	170.023
611.332	99.1016
613.743	74.8281
616.153	97.7656
618.564	0.179688
620.974	101.438
623.385	337.301
625.795	133.477
628.206	218.039
630.617	156.797
633.027	191.438
635.438	113.816
637.848	230.922
640.259	89.9688
642.67	173.559
645.08	102.148
647.491	77.0234
649.901	42.2383
652.312	112.394
654.722	121.199
657.133	166.062
659.544	166.691
661.954	191.894
664.365	63.5898
666.775	134.238
669.186	146.473
671.597	1.02734
674.007	49.6445
676.418	8.95703
678.828	44.9766
681.239	104.262
683.649	63.7773
686.06	45.293
688.471	85.6641
690.881	79.9531
693.292	64.6523
695.702	104.539
698.113	375.297
700.524	112.742
702.934	166.644
705.345	188.539
707.755	129.109
710.166	307.957
712.577	236.652
714.987	221.551
717.398	171.926
719.808	219.816
722.219	312.969
724.63	283.398
727.04	270.699
729.451	199.035
731.861	136.199
734.272	129.008
736.682	3.65234
739.093	233.207
741.504	73.4258
743.914	110.848
746.325	193.035
748.735	166.359
751.146	221.582
753.557	206.449
755.967	120.418
758.378	123.106
760.788	151.867
763.199	267.25
765.609	309.426
768.02	212.688
770.431	413.453
772.841	286.934
775.252	160.676
777.662	184.938
780.073	52.8594
782.484	41.4492
784.894	80.332
787.305	178.551
789.715	123.184
792.126	32.9297
794.536	207.938
796.947	25.8359
799.357	231.461
801.768	158.246
804.179	18.8203
806.589	92.9883
809	55.3242
811.41	150.973
813.821	30.4141
816.232	119.262
818.642	157.711
821.053	55.6641
823.463	100.547
825.874	45.2656
828.284	45.5859
830.695	92.1602
833.106	59.1094
835.516	92.0781
837.927	57.8867
840.337	89.0508
842.748	180.363
845.159	136.215
847.569	127.266
849.98	36.5586
852.39	101.652
854.801	93.9844
857.212	63.8516
859.622	92.3867
862.033	164.492
864.443	279.676
866.854	164.754
869.264	138.922
871.675	192.059
874.086	94.6172
876.496	33.4297
878.907	171.602
881.317	165.094
883.728	16.1758
886.139	114.609
888.549	94.3398
890.96	131.695
893.37	36.5117
895.781	45.0977
898.192	238.207
900.602	163.68
903.013	134.367
905.423	83.8711
907.834	214.484
910.244	115.367
912.655	15.0312
915.066	42.3203
917.476	218.969
919.887	183.078
922.297	98.3672
924.708	145.742
927.119	17.2383
929.529	43.8516
931.94	152.684
934.35	117.566
936.761	106.695
939.171	39.875
941.582	57.1836
943.993	55.0508
946.403	112.981
948.814	103.019
951.224	112.59
953.635	198.867
956.045	150.578
958.456	205.715
960.867	202.148
963.277	191.781
965.688	180.891
968.098	148.852
970.509	212.609
972.92	98.4375
975.33	11.8906
977.741	159.023
980.151	254.133
982.562	225.738
984.972	224.719
987.383	259.926
989.794	205.938
992.204	153.676
994.615	136.031
997.025	182.469
999.436	83.5781
1001.85	229.859
1004.26	213.18
1006.67	186.836
1009.08	163.16
1011.49	192.414
1013.9	232.551
1016.31	19.9453
1018.72	14.4766
1021.13	157.363
1023.54	211.125
1025.95	121.129
1028.36	19.9258
1030.77	76.8945
1033.18	209.918
1035.6	125.465
1038.01	174.894
1040.42	132.777
1042.83	236.051
1045.24	156.848
1047.65	140.621
1050.06	163.762
1052.47	211.363
1054.88	276.031
1057.29	119.586
1059.7	193.473
1062.11	241.035
1064.52	269.352
1066.93	364.262
1069.34	665.918
1071.75	612.684
1074.16	383.324
1076.58	85.418
1078.98	69.1445
1081.4	88.168
1083.81	114.156
1086.22	128.176
1088.63	15.8398
1091.04	6.20312
1093.45	22.7891
1095.86	66.418
1098.27	53.8516
1100.68	190.434
1103.09	76.6445
1105.5	149.102
1107.91	270.215
1110.32	316.188
1112.73	246.742
1115.14	341.5
1117.56	500.531
1119.96	712.789
1122.38	1076.48
1124.79	367.762
1127.2	91.8789
1129.61	39.2305
