Measurement: Raman, 780 nm, unoriented, Raman Data Processed
Mineral: Afwillite
Rruff sample: R141097
Ideal chemistry: Ca_3_(SiO_4_)(SiO_2_(OH)_2_)2H_2_O
Locality: Caspar quarry, Bellerberg volcano, Mayen, Eifel, Germany
Source: Ch. and H. Sch√§fer
Description: Spherical aggregate of radiating colorless crystals
Raman shift (cm-1)	intensity
104.577	0
107.952	105.915
111.327	7.09033
114.701	45.8101
118.076	56.1625
121.451	92.6152
124.826	129.719
128.201	59.4017
131.576	83.1204
134.95	25.8201
138.325	84.6973
141.7	97.8569
145.075	125.667
148.45	48.9762
151.825	84.396
155.199	29.4477
158.574	3.19067
161.949	15.4834
165.324	43.0873
168.698	2.71521
172.073	10.3367
175.448	68.5247
178.823	37.479
182.198	112.556
185.573	20.8279
188.947	100.286
192.322	56.6386
195.697	132.569
199.072	115.948
202.447	80.8641
205.821	71.4873
209.196	27.1848
212.571	46.2213
215.946	102.27
219.321	117.933
222.696	129.252
226.07	114.055
229.445	148.899
232.82	143.329
236.195	136.011
239.57	114.475
242.945	86.6808
246.319	113.516
249.694	175.603
253.069	59.5223
256.444	73.1378
259.818	212.866
263.193	18.942
266.568	102.311
269.943	12.8151
273.318	18.6744
276.693	6.50488
280.067	61.442
283.442	99.8639
286.817	71.1483
290.192	103.115
293.567	104.641
296.942	20.9889
300.316	81.1182
303.691	11.41
307.066	17.4561
310.441	26.5571
313.816	71.3665
317.19	134.428
320.565	67.9471
323.94	79.4727
327.315	64.3811
330.69	14.4209
334.065	31.6743
337.439	87.0748
340.814	58.9867
344.189	29.7716
347.564	17.4445
350.938	73.3256
354.313	15.189
357.688	42.7616
361.063	81.1814
364.438	49.1006
367.813	14.5994
371.187	51.7319
374.562	63.2349
377.937	46.4215
381.312	87.7629
384.687	108.255
388.062	59.7764
391.436	95.4753
394.811	162.622
398.186	133.845
401.561	236.582
404.935	164.997
408.31	159.243
411.685	448.92
415.06	155.755
418.435	66.875
421.81	131.704
425.184	98.7743
428.559	49.0665
431.934	49.1505
435.309	74.949
438.684	30.3709
442.058	17.8189
445.433	7
448.808	11.5207
452.183	9.71668
455.558	22.2223
458.933	37.5331
462.307	38.7826
465.682	69.4904
469.057	43.5421
472.432	149.325
475.807	120.069
479.182	74.7006
482.556	16.6516
485.931	220.306
489.306	48.1484
492.681	80.6625
496.055	59.8828
499.43	133.768
502.805	149.089
506.18	255.067
509.555	160.706
512.93	89.4954
516.304	120.965
519.679	221.505
523.054	155.655
526.429	91.8846
529.804	112.254
533.178	89.5439
536.553	153.073
539.928	140.628
543.303	115.462
546.678	130.28
550.053	89.3651
553.427	5.54895
556.802	13.386
560.177	49.9611
563.552	20.3834
566.927	110.726
570.302	208.729
573.676	40.6457
577.051	31.1824
580.426	61.3665
583.801	44.8146
587.176	16.1672
590.55	49.6885
593.925	12.4783
597.3	31.7776
600.675	52.5317
604.05	130.344
607.424	147.249
610.799	103.302
614.174	84.5206
617.549	21.9439
620.924	50.9524
624.298	36.3345
627.673	37.7848
631.048	27.2559
634.423	24.2208
637.798	55.5627
641.173	3.52136
644.547	10.9698
647.922	61.8557
651.297	21.2761
654.672	31.6813
658.047	65.7634
661.421	12.0676
664.796	60.1117
668.171	56.918
671.546	10.1947
674.921	54.0964
678.295	102.162
681.67	47.7531
685.045	70.4469
688.42	264.988
691.795	50.7568
695.17	55.9401
698.544	50.2371
701.919	41.6628
705.294	70.3209
708.669	35.5903
712.044	69.0169
715.418	16.9093
718.793	0.384521
722.168	10.4728
725.543	61.7761
728.918	24.1488
732.293	21.5001
735.667	69.5874
739.042	6.58081
742.417	53.7552
745.792	87.2935
749.167	29.1682
752.541	26.9374
755.916	169.21
759.291	0.872803
762.666	44.7128
766.041	63.9448
769.415	173.246
772.79	176.859
776.165	84.7317
779.54	66.4647
782.915	93.0314
786.29	84.7599
789.664	50.1679
793.039	83.1075
796.414	77.9697
799.789	223.273
803.164	137.645
806.538	141.24
809.913	32.2051
813.288	48.9653
816.663	156.04
820.038	119.088
823.413	51.1677
826.787	32.309
830.162	28.3042
833.537	11.3151
836.912	2.81335
840.287	29.6664
843.661	37.4232
847.036	64.6622
850.411	69.3568
853.786	131.787
857.161	221.411
860.535	190.687
863.91	217.868
867.285	130.826
870.66	127.849
874.035	82.2058
877.409	95.767
880.784	35.0327
884.159	66.7573
887.534	96.4928
890.909	70.026
894.284	49.2296
897.658	8.65869
901.033	45.545
904.408	96.0541
907.783	59.7803
911.158	7.54858
914.533	6.53735
917.907	51.1744
921.282	89.2164
924.657	20.3311
928.032	0.632324
931.407	76.8303
934.781	62.8865
938.156	79.9053
941.531	49.796
944.906	46.1973
948.281	57.9769
951.655	45.0196
955.03	3.32019
958.405	119.492
961.78	69.5869
965.155	63.3854
968.529	30.1174
971.904	8.29675
975.279	33.6467
978.654	25.7555
982.029	58.6007
985.404	70.2195
988.778	72.9121
992.153	44.5179
995.528	27.477
998.903	37.4021
1002.28	52.5395
1005.65	61.9357
1009.03	34.2364
1012.4	90.8744
1015.78	36.3361
1019.15	49.5787
1022.53	53.4963
1025.9	39.2175
1029.28	66.2671
1032.65	62.4134
1036.03	66.8328
1039.4	37.901
1042.78	222.265
1046.15	4.70801
1049.53	25.0039
1052.9	9.38977
1056.28	59.9019
1059.65	10.0011
1063.02	21.0535
1066.4	83.183
1069.77	4.89526
1073.15	42.0647
1076.52	94.3866
1079.9	50.5299
1083.27	61.3969
1086.65	71.3946
1090.02	105.409
1093.4	53.3813
1096.77	37.8784
1100.15	51.0894
1103.52	89.7711
1106.9	78.8915
1110.27	13.2042
1113.65	100.399
1117.02	44.7887
1120.4	85.0693
1123.77	54.821
1127.15	52.2022
1130.52	60.895
1133.9	72.1224
1137.27	9.25623
1140.64	35.8207
1144.02	42.5511
1147.39	37.3739
1150.77	1.00684
1154.14	91.5559
1157.52	71.9279
1160.89	29.8694
1164.27	80.6213
1167.64	20.2963
1171.02	49.0457
1174.39	25.6279
1177.77	88.8625
1181.14	80.9296
1184.52	34.1522
1187.89	24.2553
1191.27	23.7041
1194.64	60.7698
1198.02	106.413
1201.39	47.4805
1204.77	58.5768
1208.14	34.6885
1211.52	33.5957
1214.89	90.9795
1218.27	47.9523
1221.64	23.4309
1225.02	39.5834
1228.39	65.8806
1231.77	47.6324
1235.14	25.3384
1238.52	27.4614
1241.89	18.7447
1245.26	12.9005
1248.64	28.2446
1252.01	22.1383
1255.39	75.369
1258.76	53.853
1262.14	81.6689
1265.51	36.8888
1268.89	54.3055
1272.26	41.0096
1275.64	53.3087
1279.01	61.5074
1282.39	23.505
