Measurement: Raman, 780 nm, unoriented, Raman Data Processed
Mineral: Agardite-(Y)
Rruff sample: R070649
Ideal chemistry: Cu^2+^_6_Y^3+^(As^5+^O_4_)_3_(OH)_6_3H_2_O
Locality: Jote West mine, Pampa Larga Mining District, Copiapo, Chile
Source: Bob Jenkins
Description: Sprays of bright green acicular crystals. Sample used in Morrison <em>et al.</em> (2013) study.
Measured chemistry: (Cu_5.33_Al_0.12_Ca_0.03_Mn_0.01_)_Σ=5.49_(Y_0.52_Er_0.02_Dy_0.01_Yb_0.01_Ho_0.01_Ca_0.43_)_Σ=1.00_[(AsO_4_)_0.88_(PO_4_)_0.14_)]_3_(OH)_6_·2.99H_2_O
Raman shift (cm-1)	intensity
134.603	0
137.496	1.1976
140.389	25.4208
143.281	47.2417
146.174	32.6838
149.067	33.0446
151.959	1.7551
154.852	35.6484
157.745	31.3778
160.637	45.6995
163.53	19.1791
166.423	7.94873
169.316	42.8384
172.208	33.5772
175.101	34.3379
177.994	14.1612
180.886	28.1705
183.779	43.9821
186.672	24.5805
189.565	24.0476
192.457	42.8351
195.35	29.9029
198.243	38.0574
201.135	47.7689
204.028	37.2509
206.921	3.01448
209.813	24.4569
212.706	1.37915
215.599	31.3396
218.492	5.07623
221.384	19.5978
224.277	42.0405
227.17	13.4319
230.062	33.4639
232.955	26.2222
235.848	23.6294
238.74	29.6808
241.633	41.743
244.526	0.835556
247.418	41.981
250.311	43.3341
253.204	35.9175
256.097	51.8022
258.989	37.1591
261.882	35.4285
264.775	49.8398
267.667	20.7948
270.56	2.77193
273.453	5.54088
276.346	36.49
279.238	1.39461
282.131	11.8797
285.024	7.23068
287.916	4.39107
290.809	12.158
293.702	18.4629
296.594	1.25182
299.487	14.6058
302.38	32.5454
305.272	13.2139
308.165	19.3854
311.058	23.5292
313.951	79.497
316.843	40.7615
319.736	29.244
322.629	33.8
325.521	65.8089
328.414	52.46
331.307	25.1715
334.2	20.0126
337.092	43.0523
339.985	11.8942
342.878	26.7192
345.77	19.8231
348.663	0.119797
351.556	7.0206
354.448	5.64198
357.341	6.20606
360.234	25.8166
363.127	16.7848
366.019	36.5668
368.912	25.3998
371.805	45.7664
374.697	20.6201
377.59	17.0249
380.483	30.2289
383.375	8.16788
386.268	11.291
389.161	18.4246
392.053	17.0485
394.946	19.6687
397.839	23.983
400.732	4.16966
403.624	12.6549
406.517	11.4621
409.41	8.75583
412.302	11.1223
415.195	43.2399
418.088	7.2117
420.981	16.9084
423.873	20.9962
426.766	20.6947
429.659	1.17027
432.551	28.0205
435.444	4.70596
438.337	6.24934
441.229	31.1722
444.122	17.0283
447.015	23.3015
449.908	6.18486
452.8	25.0914
455.693	50.1344
458.586	29.9542
461.478	46.8375
464.371	32.0152
467.264	31.9048
470.156	36.263
473.049	46.7314
475.942	57.4219
478.834	43.5511
481.727	50.7349
484.62	28.3336
487.513	44.8799
490.405	28.6442
493.298	41.9343
496.191	6.85074
499.083	33.7253
501.976	14.3631
504.869	25.1408
507.762	15.2228
510.654	21.4793
513.547	22.9965
516.44	21.9743
519.332	25.5848
522.225	10.4946
525.118	29.9942
528.01	5.86615
530.903	31.8019
533.796	23.1922
536.688	12.3011
539.581	15.1759
542.474	18.942
545.367	17.1271
548.259	10.7804
551.152	27.352
554.045	3.09355
556.937	23.8398
559.83	7.09486
562.723	21.3181
565.615	13.6215
568.508	36.8346
571.401	37.7627
574.294	6.24887
577.186	28.0451
580.079	42.9855
582.972	1.52066
585.864	57.2491
588.757	23.1279
591.65	40.3528
594.543	14.7764
597.435	16.4951
600.328	5.52429
603.221	12.8275
606.113	1.62805
609.006	48.0253
611.899	29.6518
614.791	39.7829
617.684	16.6664
620.577	4.17767
623.47	19.4871
626.362	5.79785
629.255	26.0456
632.148	2.25046
635.04	24.309
637.933	26.9515
640.826	29.9346
643.718	25.216
646.611	25.4091
649.504	39.736
652.396	10.0649
655.289	21.4638
658.182	20.1135
661.075	29.7857
663.967	25.6657
666.86	25.4429
669.753	24.8977
672.645	18.1373
675.538	8.44487
678.431	21.2363
681.323	8.85063
684.216	10.3153
687.109	0.880692
690.002	27.1588
692.894	46.8088
695.787	1.14076
698.68	15.4573
701.572	40.3567
704.465	12.6574
707.358	17.2929
710.25	14.3285
713.143	4.22855
716.036	28.401
718.929	15.0934
721.821	17.0101
724.714	34.0719
727.607	8.88075
730.499	27.0382
733.392	25.2016
736.285	22.9983
739.178	22.4269
742.07	14.2914
744.963	18.0237
747.856	25.8515
750.748	14.206
753.641	25.1023
756.534	32.4318
759.426	6.212
762.319	10.7008
765.212	5.90681
768.105	45.1758
770.997	7.6945
773.89	7.45204
776.783	22.7567
779.675	20.1353
782.568	14.2277
785.461	17.6695
788.353	9.97139
791.246	5.18826
794.139	23.0907
797.032	14.1465
799.924	1.36381
802.817	14.4466
805.71	18.892
808.602	8.31734
811.495	3.52371
814.388	14.2967
817.28	24.3113
820.173	18.6958
823.066	21.0915
825.958	19.233
828.851	30.6363
831.744	26.041
834.636	16.4999
837.529	9.51433
840.422	21.4719
843.315	20.1152
846.207	37.061
849.1	58.5803
851.993	39.4399
854.885	82.2209
857.778	69.1521
860.671	79.3944
863.563	114.475
866.456	96.1597
869.349	108.049
872.242	103.863
875.134	65.0854
878.027	46.1439
880.92	59.8607
883.812	30.2558
886.705	30.2478
889.598	42.4386
892.49	39.253
895.383	26.6489
898.276	2.30296
901.169	28.097
904.061	18.8855
906.954	7.30276
909.847	28.2898
912.739	5.48894
915.632	17.3796
918.525	14.2859
921.418	33.499
924.31	8.42424
927.203	4.74158
930.096	6.71934
932.988	0.563049
935.881	21.2326
938.774	16.6714
941.666	12.7608
944.559	13.1833
947.452	0.675018
950.345	31.6382
953.237	22.4713
956.13	15.7197
959.023	35.3477
961.915	3.9885
964.808	2.82864
967.701	11.0447
970.593	9.4872
973.486	3.36239
976.379	11.461
979.271	36.7718
982.164	8.89914
985.057	12.9508
987.95	4.207
990.842	15.8945
993.735	14.8618
996.628	6.72362
999.52	21.3766
1002.41	2.07864
1005.31	17.965
1008.2	23.5175
1011.09	37.4902
1013.98	25.8732
1016.88	30.6606
1019.77	3.19737
1022.66	34.0466
1025.56	27.4409
1028.45	37.8492
1031.34	26.6296
1034.23	31.1637
1037.13	25.0749
1040.02	27.9442
1042.91	30.0119
1045.8	11.2748
1048.7	18.0983
1051.59	4.26691
1054.48	24.3345
1057.38	10.6586
1060.27	31.7883
1063.16	20.83
1066.05	33.0416
1068.94	22.8543
1071.84	25.8281
1074.73	19.6876
1077.62	0.364952
1080.52	5.71027
1083.41	16.5179
1086.3	11.0834
1089.19	27.5355
1092.09	27.4143
1094.98	23.0821
1097.87	12.3143
1100.77	17.5794
1103.66	29.1268
1106.55	41.6811
1109.44	29.9745
1112.34	18.7709
1115.23	39.8929
1118.12	31.9553
1121.01	40.6618
1123.91	10.6379
1126.8	36.4005
1129.69	27.3673
1132.59	21.3728
1135.48	26.7789
1138.37	0.96315
1141.26	6.20504
1144.15	15.073
1147.05	48.7298
1149.94	39.5799
1152.83	15.1108
1155.73	17.0089
1158.62	29.3623
1161.51	2.46979
1164.4	0.099205
1167.3	12.8456
1170.19	29.8727
1173.08	16.1801
1175.97	25.9791
1178.87	20.4182
1181.76	26.1398
1184.65	22.9052
1187.55	46.2955
1190.44	26.3326
1193.33	28.6179
1196.22	32.8617
1199.12	9.46146
1202.01	36.7153
1204.9	3.45019
1207.8	13.1964
1210.69	29.8477
1213.58	25.1699
1216.47	24.2797
1219.37	16.1882
1222.26	15.1014
1225.15	2.87678
1228.04	19.3632
1230.94	23.6851
1233.83	14.5524
1236.72	33.3893
1239.62	14.2204
1242.51	17.3881
1245.4	11.0885
1248.29	23.1229
1251.18	4.76664
1254.08	9.68342
1256.97	32.1931
1259.86	24.689
1262.76	19.7485
1265.65	23.0317
1268.54	0.485161
