Measurement: Raman, 780 nm, unoriented, Raman Data Processed
Mineral: Aikinite
Rruff sample: R100117
Ideal chemistry: Cu^1+^Pb^2+^Bi^3+^S^2-^_3_
Locality: British Columbia Molybdenum mine, Kitsault, Alice Arm, British Columbia, Canada
Source: Robert Woodside
Description: Metallic black bladed and striated crystals, with tarnished surfaces, associated with quartz and pyrite
Raman shift (cm-1)	intensity
108.604	0
111.979	1.94732
115.354	3.97734
118.728	1.03519
122.103	3.92948
125.478	1.97359
128.853	1.02818
132.228	1.05668
135.602	3.07791
138.977	1.84649
142.352	2.06173
145.727	4.79426
149.102	1.86591
152.476	3.01076
155.851	1.07772
159.226	1.08126
162.601	2.63696
165.976	0.354695
169.351	2.75606
172.725	3.25307
176.1	0.153799
179.475	0.379053
182.85	0.028083
186.225	0.758131
189.6	2.37111
192.974	2.4421
196.349	1.16896
199.724	4.14953
203.099	2.1624
206.474	1.53468
209.848	1.06735
213.223	1.38699
216.598	2.66148
219.973	2.28022
223.348	2.2281
226.722	2.13987
230.097	2.32768
233.472	3.78161
236.847	3.86619
240.222	3.32998
243.596	2.92158
246.971	3.90278
250.346	5.62932
253.721	3.71301
257.096	4.23603
260.471	4.29881
263.845	5.02274
267.22	4.97764
270.595	3.69569
273.97	2.52962
277.345	2.83861
280.719	2.63416
284.094	3.16311
287.469	2.89867
290.844	2.12261
294.219	1.89629
297.594	0.756707
300.968	2.03573
304.343	0.7785
307.718	0.353458
311.093	0.442043
314.468	1.045
317.842	3.27577
321.217	2.94821
324.592	0.12316
327.967	0.174165
331.342	2.29121
334.716	3.02868
338.091	1.17261
341.466	0.828684
344.841	1.95742
348.216	2.68489
351.591	1.10868
354.965	1.23318
358.34	1.40384
361.715	0.956516
365.09	2.35229
368.465	0.88941
371.839	0.726923
375.214	0.060253
378.589	2.04404
381.964	1.5834
385.339	1.69144
388.714	0.37858
392.088	0.778454
395.463	0.121557
398.838	2.43535
402.213	1.1653
405.588	2.4573
408.962	0.401854
412.337	1.90518
415.712	2.24117
419.087	0.528929
422.462	1.78983
425.837	2.24498
429.211	1.6934
432.586	1.09845
435.961	1.02149
439.336	0.759154
442.711	1.89373
446.085	0.915603
449.46	2.17764
452.835	1.63673
456.21	1.63159
459.585	0.995861
462.959	2.12641
466.334	2.29058
469.709	0.409082
473.084	0.795294
476.459	2.24357
479.834	0.722991
483.208	3.5836
486.583	1.75287
489.958	1.26294
493.333	2.35165
496.708	0.66068
500.082	0.440222
503.457	0.958328
506.832	2.45779
510.207	1.91097
513.582	4.34299
516.957	1.694
520.331	1.90409
523.706	1.26318
527.081	2.78761
530.456	0.634734
533.831	1.43611
537.205	1.91834
540.58	3.57849
543.955	0.568235
547.33	2.27494
550.705	2.83781
554.079	2.467
557.454	2.35918
560.829	2.60862
564.204	0.864647
567.579	3.53325
570.953	3.29516
574.328	2.22087
577.703	1.18598
581.078	1.4556
584.453	1.23182
587.828	0.22172
591.202	1.96405
594.577	1.32589
597.952	2.45094
601.327	1.81262
604.702	1.8518
608.077	1.01752
611.451	2.59913
614.826	0.197151
618.201	2.52395
621.576	2.83238
624.951	0.283998
628.325	1.03015
631.7	2.67899
635.075	0.988426
638.45	2.32174
641.825	0.755982
645.199	1.73825
648.574	3.62725
651.949	2.98006
655.324	2.31251
658.699	1.91954
662.073	0.318859
665.448	1.79794
668.823	0.703352
672.198	1.45876
675.573	0.109385
678.948	1.01959
682.322	2.85017
685.697	1.60603
689.072	1.1807
692.447	2.84955
695.822	1.60875
699.197	1.05916
702.571	1.2283
705.946	0.829731
709.321	2.399
712.696	1.79258
716.071	2.07298
719.445	1.09965
722.82	1.49127
726.195	0.029663
729.57	2.87132
732.945	0.568198
736.319	0.350279
739.694	2.27276
743.069	1.92087
746.444	0.006589
749.819	2.08505
753.193	1.42187
756.568	2.80329
759.943	2.09464
763.318	1.16073
766.693	3.76893
770.068	0.337875
773.442	0.952121
776.817	0.394467
780.192	1.83125
783.567	2.57286
786.942	0.997154
790.316	0.120792
793.691	0.240319
797.066	1.67603
800.441	0.539117
803.816	2.71476
807.191	1.96081
810.565	1.85302
813.94	0.257165
817.315	2.00582
820.69	2.42826
824.065	0.5027
827.439	2.90088
830.814	2.61147
834.189	1.19248
837.564	3.76322
840.939	0.427093
844.313	1.06807
847.688	2.78098
851.063	1.28052
854.438	0.20525
857.813	1.36456
861.188	1.99347
864.562	0.871649
867.937	2.13248
871.312	2.24285
874.687	0.850569
878.062	1.54988
881.436	2.90309
884.811	1.82695
888.186	0.454224
891.561	1.69649
894.936	1.99507
898.311	1.64699
901.685	2.13061
905.06	1.5453
908.435	1.10616
911.81	0.864457
915.185	2.31301
918.559	1.38808
921.934	1.37684
925.309	3.23381
928.684	1.06432
932.059	1.87178
935.433	2.07608
938.808	2.04901
942.183	1.24261
945.558	1.30135
948.933	1.63253
952.308	1.9032
955.682	0.735909
959.057	1.55372
962.432	2.63641
965.807	4.02983
969.182	4.44072
972.556	2.42331
975.931	3.57744
979.306	0.068247
982.681	0.778153
986.056	1.79385
989.431	2.59315
992.805	0.462492
996.18	3.05986
999.555	2.56708
1002.93	1.17934
1006.3	3.50369
1009.68	4.15389
1013.05	3.37618
1016.43	0.912659
1019.8	2.92845
1023.18	3.29168
1026.55	0.687448
1029.93	2.70828
1033.3	3.89641
1036.68	2.65817
1040.05	3.53396
1043.43	1.65657
1046.8	2.42235
1050.18	0.301157
1053.55	2.21598
1056.93	1.50462
1060.3	3.23184
1063.68	0.192729
1067.05	2.03905
1070.43	2.94068
1073.8	0.541224
1077.18	1.49718
1080.55	3.21472
1083.92	2.52956
1087.3	0.684844
1090.67	2.2592
1094.05	0.484516
1097.42	0.404979
1100.8	0.923008
1104.17	0.35568
1107.55	0.496052
1110.92	2.00725
1114.3	2.29985
1117.67	2.97196
1121.05	0.024289
1124.42	0.009027
1127.8	0.196604
1131.17	0.357298
1134.55	2.76554
1137.92	3.71602
1141.3	3.66088
1144.67	2.99533
1148.05	1.43533
1151.42	2.21371
1154.8	1.00943
1158.17	0.503126
1161.55	1.23045
1164.92	1.52132
1168.3	1.67759
1171.67	2.33076
1175.05	1.69116
1178.42	0.234895
1181.8	1.30911
1185.17	1.16689
1188.55	1.6285
1191.92	2.39537
1195.29	1.64759
1198.67	1.74729
1202.04	2.33881
1205.42	0.519147
1208.79	2.28775
1212.17	2.2723
1215.54	3.41402
1218.92	2.68747
1222.29	1.61524
1225.67	3.2923
1229.04	4.2035
1232.42	1.89125
1235.79	1.39971
1239.17	2.64088
1242.54	2.6245
1245.92	2.78096
1249.29	4.50122
1252.67	1.1492
1256.04	3.10996
1259.42	1.5602
1262.79	3.1736
1266.16	2.75054
1269.54	0.844301
1272.91	2.10335
1276.29	3.32782
1279.66	2.515
1283.04	0.020035
