Measurement: Raman, 532 nm, unoriented, Raman Data Processed
Mineral: Aikinite
Rruff sample: R100117
Ideal chemistry: Cu^1+^Pb^2+^Bi^3+^S^2-^_3_
Locality: British Columbia Molybdenum mine, Kitsault, Alice Arm, British Columbia, Canada
Source: Robert Woodside
Description: Metallic black bladed and striated crystals, with tarnished surfaces, associated with quartz and pyrite
Raman shift (cm-1)	intensity
125.698	0
129.073	4.07265
132.448	1.88721
135.823	0.316809
139.198	5.22092
142.572	0.856787
145.947	5.49942
149.322	0.653519
152.697	2.53287
156.072	5.5694
159.447	1.24131
162.821	4.14244
166.196	5.79629
169.571	2.52441
172.946	2.40729
176.321	0.112863
179.696	2.68152
183.07	5.40617
186.445	2.27297
189.82	2.81196
193.195	5.71269
196.57	2.97303
199.945	1.392
203.319	3.33022
206.694	0.876499
210.069	3.02458
213.444	3.50544
216.819	1.65456
220.193	1.01897
223.568	1.15274
226.943	2.91175
230.318	3.14548
233.693	2.89052
237.067	2.46309
240.442	0.427476
243.817	3.35591
247.192	3.39931
250.567	2.86191
253.942	4.424
257.316	6.35607
260.691	6.78621
264.066	4.058
267.441	1.92865
270.816	2.55612
274.19	1.96609
277.565	1.96435
280.94	0.170693
284.315	1.52523
287.69	1.91414
291.065	0.668133
294.439	1.35502
297.814	0.964581
301.189	1.7887
304.564	0.985886
307.939	1.32627
311.313	3.0635
314.688	2.83781
318.063	0.736933
321.438	0.41257
324.813	2.67052
328.188	2.65305
331.562	1.80905
334.937	1.4418
338.312	3.12088
341.687	2.27887
345.062	1.38921
348.437	1.07517
351.811	2.10477
355.186	2.1248
358.561	2.89792
361.936	1.56836
365.311	1.61301
368.685	0.37598
372.06	1.63484
375.435	1.97334
378.81	1.33785
382.185	0.583119
385.56	1.16653
388.934	0.275967
392.309	2.97469
395.684	1.72162
399.059	2.52621
402.434	0.663125
405.808	2.16328
409.183	2.36264
412.558	0.191963
415.933	2.10892
419.308	2.62348
422.683	1.59133
426.057	0.846262
429.432	1.59949
432.807	0.83527
436.182	2.77291
439.557	0.527902
442.932	2.29197
446.306	1.76439
449.681	2.69321
453.056	2.01957
456.431	4.67946
459.806	4.89428
463.18	3.85918
466.555	2.93796
469.93	3.6519
473.305	2.9894
476.68	5.11571
480.055	0.985639
483.429	2.19852
486.804	2.26501
490.179	1.54332
493.554	1.34804
496.929	1.88848
500.303	1.5725
503.678	2.70072
507.053	1.04312
510.428	2.23474
513.803	0.01336
517.178	0.775791
520.552	2.24408
523.927	3.16
527.302	0.928785
530.677	1.06611
534.052	1.30187
537.427	1.01037
540.801	1.85931
544.176	2.69724
547.551	1.29431
550.926	1.62156
554.301	1.67716
557.675	0.0597785
561.05	0.127767
564.425	2.68063
567.8	1.31295
571.175	1.58342
574.549	0.937087
577.924	1.03734
581.299	0.943925
584.674	1.47563
588.049	1.67443
591.424	1.48293
594.798	1.76511
598.173	0.49039
601.548	1.3674
604.923	1.78092
608.298	2.41815
611.673	0.496868
615.047	1.97171
618.422	0.807621
621.797	1.31783
625.172	3.61526
628.547	2.44821
631.921	0.830661
635.296	1.32933
638.671	0.184513
642.046	2.09393
645.421	3.35495
648.796	3.85947
652.17	2.98081
655.545	2.14704
658.92	0.366451
662.295	3.66314
665.67	0.543295
669.044	1.19329
672.419	0.48766
675.794	0.83983
679.169	2.60735
682.544	2.03639
685.919	1.45379
689.293	2.24505
692.668	1.83943
696.043	0.860208
699.418	1.58167
702.793	1.0085
706.168	2.57988
709.542	2.30203
712.917	2.31282
716.292	0.505703
719.667	1.38633
723.042	0.271574
726.416	3.66142
729.791	1.03283
733.166	1.98005
736.541	2.3756
739.916	2.52477
743.29	0.66787
746.665	2.20982
750.04	1.90494
753.415	2.16971
756.79	2.27936
760.165	0.689359
763.539	1.70698
766.914	0.24628
770.289	0.802895
773.664	2.31923
777.039	3.43958
780.414	2.25662
783.788	1.76352
787.163	1.85567
790.538	1.76242
793.913	2.2213
797.288	2.64766
800.663	0.210516
804.037	0.587949
807.412	1.86873
810.787	2.66959
814.162	0.419642
817.537	0.876145
820.911	0.860317
824.286	1.6889
827.661	0.525424
831.036	2.34139
834.411	0.82593
837.785	3.65429
841.16	2.24663
844.535	1.55566
847.91	2.30051
851.285	0.309416
854.66	1.09701
858.034	0.560286
861.409	1.21353
864.784	1.18472
868.159	1.47929
871.534	1.65685
874.909	1.24046
878.283	1.46249
881.658	2.97184
885.033	0.361839
888.408	0.136597
891.783	2.33106
895.158	2.00385
898.532	0.991567
901.907	3.12296
905.282	0.977626
908.657	1.4045
912.032	1.8093
915.406	1.82372
918.781	0.75325
922.156	0.137905
925.531	2.89978
928.906	3.16222
932.28	2.9227
935.655	1.5393
939.03	2.06682
942.405	0.775807
945.78	0.191649
949.155	2.70645
952.529	0.897202
955.904	1.2254
959.279	1.3683
962.654	1.01784
966.029	2.14645
969.404	1.60387
972.778	2.50848
976.153	0.874291
979.528	4.97591
982.903	0.439429
986.278	1.09674
989.653	1.68885
993.027	3.17325
996.402	2.47092
999.777	2.53486
1003.15	3.11061
1006.53	2.28988
1009.9	2.18397
1013.28	3.13071
1016.65	2.89661
1020.03	0.465352
1023.4	2.20571
1026.78	2.97368
1030.15	0.251978
1033.53	3.09147
1036.9	2.70567
1040.28	1.96867
1043.65	3.32896
1047.02	1.96494
1050.4	2.57876
1053.77	0.633267
1057.15	2.85262
1060.52	0.844318
1063.9	2.15405
1067.27	1.0006
1070.65	2.21111
1074.02	1.34379
1077.4	2.84606
1080.77	0.512455
1084.15	1.32465
1087.52	2.86483
1090.9	0.800068
1094.27	0.654781
1097.65	1.95134
1101.02	1.15885
1104.4	2.78832
1107.77	3.503
1111.15	2.53695
1114.52	0.065742
1117.9	2.13316
1121.27	0.751975
1124.64	2.08983
1128.02	0.335673
1131.39	1.83037
1134.77	0.909163
1138.14	0.260489
1141.52	3.47485
1144.89	3.02764
1148.27	2.69055
1151.64	2.87166
1155.02	1.05159
1158.39	2.45139
1161.77	0.01298
1165.14	1.52731
1168.52	2.31144
1171.89	0.674055
1175.27	2.08673
1178.64	2.8421
1182.02	2.15323
1185.39	0.504439
1188.77	0.314114
1192.14	3.30264
1195.52	2.39823
1198.89	2.71164
1202.27	1.31697
1205.64	2.86894
1209.02	1.93328
1212.39	2.85586
1215.77	0.522447
1219.14	2.61196
1222.52	2.30917
1225.89	1.77765
1229.27	2.25571
1232.64	1.04415
1236.01	0.409187
1239.39	2.53795
1242.76	2.59667
1246.14	0.93631
1249.51	2.38274
1252.89	2.56636
1256.26	1.56212
1259.64	4.05565
1263.01	0.83557
1266.39	2.90509
1269.76	1.50646
1273.14	2.92701
1276.51	1.4793
1279.89	0.157984
1283.26	2.4091
1286.64	2.60961
1290.01	2.57495
1293.39	0.134297
