Measurement: Raman, 514 nm, unoriented, Raman Data Processed
Mineral: Allanite-(Ce)
Rruff sample: R050043
Ideal chemistry: CaCeAl_2_Fe^2+^(Si_2_O_7_)(SiO_4_)O(OH)
Locality: Arendal, Norway
Source: University of Arizona Mineral Museum
Description: Black patially metamict fragment, note that a fragment of this sample was heated and is posted at R080092
Measured chemistry: Ca_1.00_(Ce^3+^_0.22_Ca_0.21_La_0.11_Nd_0.11_Mn_0.08_Gd_0.07_Th_0.06_Y_0.06_Ti_0.05_Mg_0.03_)_Σ=1_(Al_1.82_Fe^3+^_0.40_Fe^2+^_0.78_)_Σ=3_[Si_2.00_O_7_][Si_1.00_O_4_]O(OH)
Raman shift (cm-1)	intensity
139.444	0
141.951	514.966
144.456	144.927
146.961	192.664
149.465	558.844
151.968	434.039
154.469	236.898
156.971	185.104
159.471	92.568
161.97	311.654
164.469	66.877
166.966	239.734
169.463	389.953
171.959	311.55
174.454	458.096
176.948	592.684
179.441	322.631
181.933	467.766
184.425	947.961
186.915	1253.12
189.405	1303.23
191.894	1465.98
194.382	1830.88
196.869	2387.66
199.355	2716.53
201.84	2877.72
204.325	3671.16
206.808	4657.05
209.291	5105.78
211.773	5387.44
214.254	7006.06
216.734	7749.7
219.213	7978.58
221.692	8654.02
224.169	8620.75
226.646	9380.52
229.122	9093.35
231.596	7949.23
234.07	6578.16
236.544	6441.55
239.016	6000.39
241.487	5297.2
243.958	4886.1
246.428	4756.32
248.897	5061.82
251.365	4944.55
253.832	4262.62
256.298	4383.41
258.763	4795.59
261.228	4712.35
263.692	4078.98
266.154	3376.23
268.616	3513.61
271.078	3350.87
273.538	2700.93
275.997	2163.47
278.456	2228.43
280.913	2195.78
283.37	1555.47
285.826	897.447
288.281	1171.68
290.736	1128.13
293.189	796.797
295.641	1319.46
298.093	880.758
300.544	786.039
302.994	603.502
305.443	403.139
307.891	564.932
310.339	948.861
312.785	300.172
315.231	563.035
317.676	363.236
320.12	1025.48
322.563	1089.74
325.005	236.059
327.447	184.398
329.887	644.754
332.327	357.326
334.766	288.055
337.204	291.549
339.641	187.775
342.078	314.666
344.513	215.154
346.948	162.455
349.382	623.146
351.815	532.221
354.247	1152.16
356.678	1933.26
359.109	2092.61
361.538	2506.68
363.967	2083.08
366.395	2402.04
368.822	2823.39
371.248	2000.88
373.674	2262.27
376.098	3055.41
378.522	2958.61
380.945	2989.44
383.367	2821.99
385.788	2946.24
388.208	3632.16
390.628	4349.71
393.046	3698.86
395.464	4329.57
397.881	4691.82
400.297	3882.53
402.713	3990.77
405.127	3837.41
407.541	4685.44
409.954	4624.83
412.365	3885.55
414.777	3837.56
417.187	3590.92
419.596	4075.31
422.005	4523.1
424.413	4116.3
426.82	3745.24
429.226	4107.06
431.631	3344.71
434.036	3413.53
436.439	3676.92
438.842	3173.09
441.244	2594.44
443.645	2993.77
446.045	2936.35
448.445	2267.24
450.844	2641.8
453.241	2195.72
455.638	2244.94
458.035	1665.59
460.43	1388.5
462.824	1794.26
465.218	1764.97
467.611	1558.71
470.003	2044.42
472.394	1797.13
474.785	1308.97
477.174	1143.42
479.563	1071.46
481.951	1569.39
484.338	1487.17
486.724	1394.77
489.11	1112.16
491.494	711.816
493.878	966.148
496.261	762.689
498.643	1058.89
501.024	450.275
503.405	420.121
505.785	771.264
508.163	479.623
510.542	90.072
512.919	367.156
515.295	19.889
517.671	102.326
520.046	23.848
522.419	135.494
524.793	83.834
527.165	92.318
529.536	220.391
531.907	94.376
534.277	301.918
536.646	99.16
539.014	361.684
541.382	293.68
543.748	230.133
546.114	206.678
548.479	226.057
550.843	216.043
553.207	159.006
555.569	15.723
557.931	137.523
560.292	39.283
562.652	779.693
565.011	739.109
567.37	847.562
569.728	865.799
572.084	1431.69
574.441	1397.37
576.796	1452.13
579.15	1735.96
581.504	1708.96
583.857	1671.13
586.209	1652.54
588.56	2073.02
590.91	2252.6
593.26	1991.43
595.609	2339.49
597.957	2776.78
600.304	2223.33
602.65	2378.98
604.996	2733.75
607.341	2277.84
609.685	2736.52
612.028	2718.03
614.37	3073.73
616.712	2620.94
619.053	2411.07
621.393	3237.37
623.732	3025.46
626.07	2931.39
628.408	3212.35
630.745	3135.75
633.081	2818.04
635.416	2807.77
637.75	3305.34
640.084	3362.72
642.417	2901.94
644.749	2655.24
647.08	2971.85
649.41	3099.44
651.74	3261.1
654.069	2993.36
656.397	3140.43
658.724	2778.45
661.05	2938.09
663.376	2763.09
665.701	2637.75
668.025	2577.72
670.348	2876.31
672.67	3035.4
674.992	2616.33
677.313	2559.07
679.633	2978.56
681.952	2707.56
684.271	2222.42
686.588	2404.84
688.905	2638.39
691.221	2344.49
693.537	2052.61
695.851	2620.94
698.165	2234.55
700.478	2462.83
702.79	2380.56
705.102	2395.85
707.412	1994.86
709.722	2266.36
712.031	2434.22
714.339	2311.86
716.647	1929.11
718.953	1855.08
721.259	2072.41
723.564	1548.6
725.869	1505.32
728.172	1382.51
730.475	1639.9
732.777	1118.01
735.078	1296.75
737.378	1005.95
739.678	1031.68
741.977	714.867
744.275	644.889
746.572	375.023
748.869	215.191
751.164	505.27
753.459	225.236
755.753	55.074
758.047	334.76
760.339	174.303
762.631	193.752
764.922	196.828
767.213	87.748
769.502	71.145
771.791	130.551
774.079	78.807
776.366	112.008
778.652	42.963
780.938	44.26
783.223	74.457
785.507	108.668
787.79	9.23
790.072	47.798
792.354	95.605
794.635	137.76
796.915	18.291
799.195	35.883
801.473	180.367
803.751	94.613
806.028	259.387
808.305	333.959
810.58	98.334
812.855	652.49
815.129	566.434
817.402	530.135
819.675	573.566
821.946	1046.72
824.217	989.576
826.488	1082.12
828.757	1394.33
831.026	1426.19
833.293	1777.7
835.561	2088.82
837.827	2529.54
840.092	2379.76
842.357	2969.67
844.621	3369.07
846.885	3836.75
849.147	4145.68
851.409	4825.8
853.67	5367.2
855.93	5723.85
858.189	6689.79
860.448	7033
862.706	8206.16
864.963	9288.61
867.22	10046
869.475	11234.9
871.73	11914.7
873.984	13603.9
876.238	14419
878.49	15280.4
880.742	16414
882.993	17040.6
885.243	17431
887.493	17981.9
889.742	17829.2
891.99	17936.4
894.237	17647.5
896.484	16957.9
898.729	16098.1
900.974	15217.9
903.219	14247.4
905.462	12515
907.705	11451
909.947	9836.12
912.188	8870.59
914.429	7624.33
916.668	6527.24
918.907	5249.19
921.146	4260.06
923.383	3550.36
925.62	2949.32
927.856	2407.47
930.091	1815.17
932.325	1341.67
934.559	924.822
936.792	703.139
939.024	687.338
941.256	326.998
943.486	31.838
945.716	78.764
947.946	57.914
950.174	9.004
952.402	18.062
954.629	81.787
956.855	85.223
959.08	1.74
961.305	81.273
963.529	225.68
965.752	452.328
967.975	908.717
970.197	1015.03
972.418	1151.4
974.638	1157.96
976.857	1584.89
979.076	1612.41
981.294	1640.75
983.511	1510.16
985.728	1488.61
987.944	1565.68
990.159	1359.13
992.373	1038.28
994.587	915.936
996.799	850.773
999.011	740.217
1001.22	677.119
1003.43	716.801
1005.64	456.994
1007.85	305.24
1010.06	367.445
1012.27	137.752
1014.48	164.115
1016.68	3.363
1018.89	119.984
1021.09	14.678
1023.29	202.295
1025.5	123.854
1027.7	14.082
