Measurement: Raman, 780 nm, unoriented, Raman Data Processed
Mineral: Allanite-(Ce)
Rruff sample: R080092
Ideal chemistry: CaCeAl_2_Fe^2+^(Si_2_O_7_)(SiO_4_)O(OH)
Locality: Arendal, Norway
Source: University of Arizona Mineral Museum
Description: Dark brown fragment from metamict sample R050043, after heating at T = 1000 C for 18 hours
Raman shift (cm-1)	intensity
150.377	0
153.27	4.29981
156.163	7.84326
159.055	6.70898
161.948	25.2595
164.841	48.9307
167.734	50.9751
170.626	60.4707
173.519	87.6938
176.412	100.089
179.304	123.791
182.197	138.738
185.09	157.216
187.982	172.091
190.875	182.967
193.768	183.189
196.661	194.586
199.553	222.942
202.446	242.012
205.339	268.621
208.231	291.818
211.124	290.373
214.017	289.744
216.91	277.881
219.802	266.921
222.695	246.145
225.588	214.204
228.48	176.171
231.373	141.947
234.266	118.542
237.158	84.084
240.051	58.0659
242.944	23.8774
245.837	22.4541
248.729	4.66504
251.622	4.21777
254.515	8.42139
257.407	25.272
260.3	37.5005
263.193	35.458
266.085	29.231
268.978	26.3672
271.871	15.4165
274.764	4.59326
277.656	7.98731
280.549	27.792
283.442	82.9771
286.334	111.543
289.227	141.714
292.12	188.882
295.012	229.865
297.905	289.079
300.798	375.262
303.69	452.627
306.583	558.573
309.476	673.753
312.369	814.977
315.261	974.807
318.154	1139.67
321.047	1303.37
323.939	1451.62
326.832	1617.17
329.725	1778.13
332.618	1920.12
335.51	2054.16
338.403	2204.41
341.296	2312.29
344.188	2385.5
347.081	2428.95
349.974	2468.23
352.866	2454.48
355.759	2431.73
358.652	2398.97
361.545	2322.1
364.437	2244.43
367.33	2132.24
370.223	2033.37
373.115	1917.4
376.008	1723.67
378.901	1588.07
381.793	1449.51
384.686	1278.52
387.579	1147.26
390.471	1029.64
393.364	903.36
396.257	797.543
399.15	693.936
402.042	575.836
404.935	486.041
407.828	405.864
410.72	328.665
413.613	255.064
416.506	202.505
419.399	146.269
422.291	129.85
425.184	89.1807
428.077	62.3672
430.969	41.0732
433.862	14.7676
436.755	4.70215
439.647	11.2803
442.54	15.9697
445.433	9.77832
448.325	15.5464
451.218	26.6919
454.111	21.1934
457.004	30.5449
459.896	14.376
462.789	2.80908
465.682	11.6587
468.574	3.40185
471.467	16.1045
474.36	16.7993
477.252	8.35547
480.145	16.2549
483.038	30.8867
485.931	50.8511
488.823	48.8164
491.716	63.0835
494.609	78.4707
497.501	96.1338
500.394	97.9873
503.287	87.2041
506.18	104.221
509.072	115.967
511.965	119.134
514.858	116.042
517.75	125.439
520.643	128.276
523.536	120.78
526.428	120.379
529.321	126.768
532.214	129.5
535.106	114.588
537.999	108.2
540.892	113.128
543.785	115.023
546.677	104.532
549.57	99.6504
552.463	98.9814
555.355	101.824
558.248	96.583
561.141	88.0195
564.034	84.5503
566.926	84.2334
569.819	88.5708
572.712	82.0063
575.604	76.1728
578.497	75.3066
581.39	65.4736
584.282	63.1987
587.175	82.7002
590.068	75.8931
592.96	77.3198
595.853	62.0776
598.746	61.5171
601.639	72.6011
604.531	51.5405
607.424	37.6167
610.317	34.4717
613.209	26.6675
616.102	14.6533
618.995	10.5757
621.888	12.9316
624.78	15.8213
627.673	8.54443
630.566	10.1123
633.458	3.09815
636.351	0.179443
639.244	0.954346
642.136	3.97705
645.029	5.34082
647.922	3.01636
650.814	0.170898
653.707	6.81958
656.6	16.073
659.493	2.39917
662.385	0.007568
665.278	2.45898
668.171	7.59912
671.063	6.23169
673.956	8.6355
676.849	16.3852
679.741	20.1604
682.634	38.2263
685.527	40.227
688.42	53.8167
691.312	51.8201
694.205	65.8843
697.098	68.5654
699.99	79.5859
702.883	86.2388
705.776	102.312
708.668	112.382
711.561	125.378
714.454	127.961
717.347	143.93
720.239	160.344
723.132	159.798
726.025	165.803
728.917	168.098
731.81	182.369
734.703	183.489
737.596	190.391
740.488	184.774
743.381	186.821
746.274	187.41
749.166	192.116
752.059	183.58
754.952	177.551
757.844	170.497
760.737	164.177
763.63	159.519
766.523	149.719
769.415	143.178
772.308	138.54
775.201	131.92
778.093	118.45
780.986	116.674
783.879	105.557
786.771	95.4116
789.664	88.3242
792.557	82.894
795.449	81.0178
798.342	71.9956
801.235	63.4832
804.128	54.6797
807.02	59.7766
809.913	54.6404
812.806	41.2918
815.698	32.8003
818.591	29.1895
821.484	20.6487
824.376	16.8015
827.269	11.7789
830.162	8.91187
833.055	9.48865
835.947	3.84351
838.84	1.26721
841.733	2.0321
844.625	6.55493
847.518	5.52405
850.411	7.74597
853.303	6.32861
856.196	3.00842
859.089	6.33862
861.982	0.362427
864.874	0.418823
867.767	6.64648
870.66	8.3186
873.552	12.7385
876.445	13.9091
879.338	15.8276
882.231	16.6603
885.123	21.9774
888.016	24.1963
890.909	37.9728
893.801	33.6476
896.694	33.0359
899.587	38.2532
902.479	34.5926
905.372	33.4528
908.265	34.0894
911.158	31.5756
914.05	30.8217
916.943	27.3981
919.836	27.0724
922.728	23.5757
925.621	26.9054
928.514	24.4716
931.406	27.1688
934.299	30.8497
937.192	30.1803
940.084	32.5688
942.977	34.9216
945.87	33.8384
948.763	33.7508
951.655	30.4111
954.548	30.4917
957.441	31.5494
960.333	31.6543
963.226	27.9839
966.119	22.1625
969.011	25.7898
971.904	19.3621
974.797	19.201
977.689	15.144
980.582	12.0173
983.475	14.8718
986.368	9.65808
989.26	10.5703
992.153	11.6523
995.046	10.0421
997.938	6.39648
1000.83	8.80591
1003.72	3.93652
1006.62	3.38928
1009.51	5.23706
1012.4	4.44031
1015.29	1.87097
1018.19	3.76111
1021.08	0.803955
1023.97	0.061768
1026.87	3.95032
1029.76	4.48303
1032.65	0.782471
1035.54	1.27686
1038.44	2.36023
1041.33	2.02441
1044.22	2.62476
1047.11	2.77344
1050.01	0.074951
1052.9	2.04663
1055.79	2.08142
1058.68	1.91284
1061.58	0.17395
1064.47	1.13501
1067.36	2.30798
1070.26	0.456909
1073.15	1.25745
1076.04	1.48083
1078.93	2.7782
1081.83	1.74756
1084.72	0.550781
1087.61	4.73816
1090.51	2.0116
1093.4	4.75561
1096.29	2.45252
1099.18	4.26575
1102.08	2.71619
1104.97	10.5676
1107.86	7.5708
1110.75	12.7788
1113.65	16.3224
1116.54	22.5684
1119.43	30.6466
1122.32	39.5818
1125.22	49.4688
1128.11	59.7788
1131	69.9614
1133.89	81.7737
1136.79	95.8857
1139.68	106.893
1142.57	122.575
1145.47	131.396
1148.36	148.96
1151.25	166.431
1154.14	180.556
1157.04	194.907
1159.93	204.547
1162.82	215.878
1165.71	225.316
1168.61	242.396
1171.5	257.076
1174.39	269.826
1177.29	274.224
1180.18	280.855
1183.07	271.75
1185.96	257.773
1188.86	246.391
1191.75	234.434
1194.64	217.133
1197.54	197.53
1200.43	171.696
1203.32	162.922
1206.21	133.821
1209.11	101.731
1212	81.2676
1214.89	60.9253
1217.78	46.4312
1220.68	20.3735
1223.57	0.583496
1226.46	10.0083
1229.35	15.0391
1232.25	1.97314
1235.14	10.3442
1238.03	37.0991
1240.92	60.666
1243.82	81.1387
1246.71	109.142
1249.6	123.519
1252.5	147.011
1255.39	144.49
1258.28	128.666
1261.17	105.922
1264.07	102.342
1266.96	100.546
1269.85	77.1221
1272.74	53.5952
1275.64	45.3594
1278.53	41.9155
1281.42	7.75244
1284.32	7.57617
