Measurement: Raman, 780 nm, unoriented, Raman Data Processed
Mineral: Allanite-(Ce)
Rruff sample: R080044
Ideal chemistry: CaCeAl_2_Fe^2+^(Si_2_O_7_)(SiO_4_)O(OH)
Locality: Aquarius Range, Mohave County, Arizona, USA
Source: John Weber
Description: Dark brown fragment from metamict sample R060418, after heating at T = 850 C for 18 hours
Raman shift (cm-1)	intensity
198.151	1167.99
201.044	1185.6
203.937	1203.62
206.829	1226.67
209.722	1237.93
212.615	1264.52
215.507	1276.88
218.4	1294.84
221.293	1315.29
224.186	1337.2
227.078	1348.48
229.971	1365.02
232.864	1372.12
235.756	1384.44
238.649	1401.22
241.542	1412.71
244.435	1423.66
247.327	1439.83
250.22	1454.69
253.113	1472.12
256.005	1487.53
258.898	1511.73
261.791	1522.51
264.683	1540.31
267.576	1560.71
270.469	1583.29
273.361	1593
276.254	1615.45
279.147	1635.94
282.04	1660.18
284.932	1671.72
287.825	1695.32
290.718	1720.48
293.61	1745.17
296.503	1768.91
299.396	1789.92
302.288	1805.27
305.181	1828.38
308.074	1851.36
310.967	1877.08
313.859	1909.66
316.752	1937.45
319.645	1970.89
322.537	1999.65
325.43	2033.6
328.323	2071.79
331.216	2113.18
334.108	2149.38
337.001	2196.28
339.894	2224.97
342.786	2255.27
345.679	2295.66
348.572	2342.92
351.464	2380.19
354.357	2425.11
357.25	2461.22
360.142	2507.48
363.035	2550.89
365.928	2593.27
368.821	2640.75
371.713	2680.76
374.606	2728.64
377.499	2764.82
380.391	2796.35
383.284	2829.81
386.177	2868.52
389.07	2897.93
391.962	2919.9
394.855	2949.87
397.748	2970.29
400.64	2976.07
403.533	3002.66
406.426	3014.95
409.318	3015.78
412.211	3027.9
415.104	3025.01
417.997	3017.09
420.889	3013.79
423.782	3004.7
426.675	2988.68
429.567	2975.02
432.46	2954.2
435.353	2939.03
438.245	2918.25
441.138	2895.68
444.031	2876.22
446.923	2858.59
449.816	2827.8
452.709	2811.62
455.602	2784.52
458.494	2761.92
461.387	2734.03
464.28	2695.84
467.172	2666.83
470.065	2645.25
472.958	2620.18
475.851	2596.91
478.743	2578.93
481.636	2540.02
484.529	2529.14
487.421	2502.33
490.314	2489.23
493.207	2463.21
496.099	2453.96
498.992	2442.8
501.885	2416.34
504.777	2411.81
507.67	2394.11
510.563	2369.37
513.456	2361.21
516.348	2347.13
519.241	2330.28
522.134	2308.27
525.026	2296.38
527.919	2282.76
530.812	2276.43
533.705	2262.32
536.597	2247.78
539.49	2233.61
542.383	2217.09
545.275	2206.77
548.168	2189.25
551.061	2181.3
553.953	2173.38
556.846	2159.4
559.739	2149.47
562.631	2140.18
565.524	2120.42
568.417	2110.46
571.31	2101.61
574.202	2085.1
577.095	2075.38
579.988	2072.19
582.88	2055.7
585.773	2044.31
588.666	2037.14
591.558	2027.31
594.451	2015.36
597.344	2002.35
600.237	1988.32
603.129	1977.96
606.022	1962.02
608.915	1946.44
611.807	1937.12
614.7	1918.2
617.593	1907.4
620.486	1891.35
623.378	1875.39
626.271	1862.04
629.164	1853.48
632.056	1834.06
634.949	1815.71
637.842	1804.65
640.734	1788.68
643.627	1772.98
646.52	1762.61
649.413	1750.17
652.305	1733.54
655.198	1714.59
658.091	1701.38
660.983	1686.11
663.876	1664.29
666.769	1653.88
669.661	1637.43
672.554	1619.59
675.447	1610.52
678.34	1593.19
681.232	1577.46
684.125	1565.21
687.018	1547.02
689.91	1527.98
692.803	1520.09
695.696	1504.83
698.588	1489.78
701.481	1476.96
704.374	1459.48
707.266	1447.67
710.159	1441.31
713.052	1422.77
715.945	1405.36
718.837	1395.02
721.73	1375.58
724.623	1364.85
727.515	1352.05
730.408	1340.88
733.301	1327.6
736.193	1311.04
739.086	1300.74
741.979	1286.35
744.872	1276.22
747.764	1262.33
750.657	1252.5
753.55	1237.34
756.442	1223.65
759.335	1211.08
762.228	1196.03
765.12	1178.91
768.013	1166.75
770.906	1157.52
773.799	1142.29
776.691	1131.08
779.584	1119.99
782.477	1107.03
785.369	1089.37
788.262	1073.35
791.155	1067.18
794.048	1053.84
796.94	1039.89
799.833	1025.83
802.726	1009.9
805.618	999.139
808.511	987.879
811.404	971.623
814.296	956.195
817.189	948.867
820.082	935.078
822.975	923.503
825.867	912.055
828.76	896.391
831.653	888.454
834.545	874.626
837.438	863.511
840.331	853.725
843.223	837.16
846.116	831.612
849.009	815.824
851.902	811.433
854.794	796.412
857.687	786.319
860.58	778.06
863.472	767.014
866.365	754.985
869.258	748.037
872.15	740.384
875.043	733.889
877.936	726.363
880.829	716.269
883.721	711.106
886.614	704.183
889.507	694.802
892.399	689.189
895.292	687.703
898.185	683.01
901.077	680.386
903.97	676.07
906.863	673.468
909.756	673.062
912.648	670.035
915.541	667.399
918.434	663.294
921.326	665.674
924.219	660.053
927.112	659.498
930.005	656.883
932.897	657.995
935.79	659.738
938.683	653.736
941.575	653.311
944.468	650.159
947.361	655.705
950.253	659.65
953.146	656.425
956.039	660.272
958.932	663.141
961.824	662.769
964.717	660.533
967.61	670.242
970.502	669.301
973.395	670.077
976.288	670.948
979.18	673.168
982.073	677.884
984.966	686.734
987.859	685.025
990.751	691.082
993.644	696.068
996.537	699.319
999.429	704.172
1002.32	712.144
1005.22	721.642
1008.11	727.909
1011	739.184
1013.89	750.337
1016.78	763.057
1019.68	773.222
1022.57	782.337
1025.46	798.878
1028.36	811.477
1031.25	827.172
1034.14	837.39
1037.03	857.734
1039.93	868.008
1042.82	890.022
1045.71	908.267
1048.61	918.33
1051.5	942.158
1054.39	964.954
1057.28	985.074
1060.18	1005.23
1063.07	1030.53
1065.96	1056.51
1068.85	1081.79
1071.75	1106.21
1074.64	1133.41
1077.53	1163.35
1080.42	1189.02
1083.32	1224.05
1086.21	1252.05
1089.1	1288.16
1092	1317.98
1094.89	1358.76
1097.78	1387.73
1100.67	1425.09
1103.57	1452.01
1106.46	1488.4
1109.35	1529.54
1112.24	1558.59
1115.14	1591.35
1118.03	1632.45
1120.92	1667.65
1123.82	1708.53
1126.71	1746.68
1129.6	1782.98
1132.49	1830.72
1135.39	1867.47
1138.28	1905.42
1141.17	1949.18
1144.06	1991.46
1146.96	2028.69
1149.85	2079.26
1152.74	2116.4
1155.63	2156.15
1158.53	2198.28
1161.42	2242.55
1164.31	2280.19
1167.21	2328.87
1170.1	2371.01
1172.99	2413.04
1175.88	2451.52
1178.78	2482.92
1181.67	2528.42
1184.56	2560.63
1187.45	2596.72
1190.35	2633.97
1193.24	2668.54
1196.13	2696.9
1199.03	2735.32
1201.92	2776.09
1204.81	2801.23
1207.7	2828.08
1210.6	2863
1213.49	2900.92
1216.38	2923.45
1219.27	2950.68
1222.17	2976.99
1225.06	3009.08
1227.95	3044.74
1230.85	3073.1
1233.74	3101.12
1236.63	3134.94
1239.52	3161.14
1242.42	3182.3
1245.31	3214.39
1248.2	3250.69
1251.09	3280.43
1253.99	3315.44
1256.88	3364.57
1259.77	3397.59
1262.66	3443.14
1265.56	3504.07
1268.45	3542.56
1271.34	3585.7
1274.24	3651.44
1277.13	3703.81
1280.02	3759.88
1282.91	3845.9
