Measurement: Raman, 532 nm, unoriented, Raman Data Processed
Mineral: Allanite-(Ce)
Rruff sample: R050043
Ideal chemistry: CaCeAl_2_Fe^2+^(Si_2_O_7_)(SiO_4_)O(OH)
Locality: Arendal, Norway
Source: University of Arizona Mineral Museum
Description: Black patially metamict fragment, note that a fragment of this sample was heated and is posted at R080092
Measured chemistry: Ca_1.00_(Ce^3+^_0.22_Ca_0.21_La_0.11_Nd_0.11_Mn_0.08_Gd_0.07_Th_0.06_Y_0.06_Ti_0.05_Mg_0.03_)_Σ=1_(Al_1.82_Fe^3+^_0.40_Fe^2+^_0.78_)_Σ=3_[Si_2.00_O_7_][Si_1.00_O_4_]O(OH)
Raman shift (cm-1)	intensity
170.393	0
173.286	11.8501
176.178	70.1195
179.071	64.111
181.964	85.7771
184.856	39.0196
187.749	76.557
190.642	73.1846
193.535	63.2605
196.427	54.9714
199.32	51.666
202.213	58.5896
205.105	27.2209
207.998	58.7358
210.891	52.374
213.783	45.2991
216.676	16.2844
219.569	75.8098
222.462	37.2588
225.354	24.6165
228.247	41.114
231.14	22.8875
234.032	36.6184
236.925	20.4526
239.818	28.9248
242.71	32.4502
245.603	31.1733
248.496	20.4802
251.388	12.1228
254.281	24.217
257.174	31.562
260.067	13.446
262.959	29.7849
265.852	30.9477
268.745	5.20679
271.637	27.4365
274.53	8.4873
277.423	1.93921
280.315	6.02759
283.208	3.96094
286.101	28.0459
288.994	9.32544
291.886	54.917
294.779	22.8218
297.672	53.1497
300.564	20.4021
303.457	55.4937
306.35	5.22607
309.243	65.4622
312.135	18.3132
315.028	1.06689
317.921	5.46362
320.813	0.65918
323.706	24.0715
326.599	15.1707
329.491	24.8174
332.384	7.87402
335.277	15.6079
338.17	12.377
341.062	27.1328
343.955	9.7124
346.848	39.9473
349.74	50.5552
352.633	26.833
355.526	6.2915
358.418	20.5227
361.311	7.62134
364.204	7.44751
367.097	41.2273
369.989	60.9326
372.882	47.6416
375.775	44.8047
378.667	13.9507
381.56	42.2849
384.453	34.3866
387.346	37.7588
390.238	38.6749
393.131	51.3062
396.024	32.0065
398.916	14.4381
401.809	1.45801
404.702	27.3597
407.594	31.8821
410.487	23.6727
413.38	20.9778
416.272	57.4319
419.165	59.1305
422.058	87.0918
424.951	42.4424
427.843	73.2203
430.736	60.9945
433.629	59.9039
436.521	52.6487
439.414	77.3678
442.307	54.3099
445.2	39.7429
448.092	53.9033
450.985	37.9285
453.878	38.6401
456.77	52.3925
459.663	18.9944
462.556	33.8584
465.448	29.3611
468.341	10.4681
471.234	7.078
474.127	16.953
477.019	3.04053
479.912	37.3092
482.805	3.32849
485.697	41.8469
488.59	5.45618
491.483	28.8864
494.375	18.2297
497.268	2.06726
500.161	36.4121
503.053	37.0872
505.946	27.907
508.839	44.3397
511.732	55.3712
514.624	31.3013
517.517	42.2725
520.41	50.022
523.302	59.6688
526.195	75.135
529.088	82.8165
531.981	71.597
534.873	75.9006
537.766	51.8087
540.659	66.9761
543.551	80.4998
546.444	128.494
549.337	104.487
552.229	114.275
555.122	105.829
558.015	115.609
560.908	111.194
563.8	82.8428
566.693	98.2247
569.586	85.8693
572.478	104.426
575.371	107.249
578.264	86.9263
581.156	102.038
584.049	79.7505
586.942	75.0563
589.835	51.9017
592.727	63.537
595.62	68.1577
598.513	49.5339
601.405	51.9477
604.298	57.7614
607.191	26.1621
610.083	25.5223
612.976	5.78101
615.869	33.0277
618.762	25.793
621.654	19.4185
624.547	5.93469
627.44	36.5066
630.332	6.64099
633.225	17.8755
636.118	7.17944
639.01	4.85132
641.903	14.3201
644.796	19.9419
647.689	35.4868
650.581	1.76892
653.474	27.5802
656.367	29.4171
659.259	20.4044
662.152	12.9745
665.045	18.1411
667.938	40.7654
670.83	24.9901
673.723	50.4266
676.616	7.48181
679.508	41.4149
682.401	80.7447
685.294	51.0256
688.186	49.6681
691.079	42.3281
693.972	61.2814
696.865	39.2515
699.757	24.882
702.65	48.9749
705.543	44.6718
708.435	38.5612
711.328	28.9193
714.221	38.6188
717.113	52.8131
720.006	35.4168
722.899	54.6389
725.792	61.6981
728.684	66.5426
731.577	60.7576
734.47	70.4241
737.362	41.7003
740.255	66.1804
743.148	85.6793
746.04	90.4442
748.933	92.0836
751.826	62.6223
754.719	62.1681
757.611	26.269
760.504	77.751
763.397	51.6599
766.289	69.1146
769.182	52.9511
772.075	52.8866
774.967	60.3062
777.86	18.3385
780.753	53.4899
783.646	9.40845
786.538	3.70142
789.431	2.81348
792.324	17.8948
795.216	28.3779
798.109	14.4851
801.002	17.9663
803.894	19.4121
806.787	14.8624
809.68	14.1907
812.573	18.1658
815.465	20.4996
818.358	35.0946
821.251	20.382
824.143	1.39551
827.036	38.8163
829.929	5.10425
832.822	15.2653
835.714	35.6435
838.607	42.3518
841.5	32.3762
844.392	64.501
847.285	22.0831
850.178	49.5718
853.07	34.4144
855.963	66.6475
858.856	47.1746
861.749	47.5181
864.641	21.2784
867.534	33.6301
870.427	55.746
873.319	42.5193
876.212	45.412
879.105	68.8033
881.997	77.1254
884.89	69.2128
887.783	103.324
890.676	94.7903
893.568	92.272
896.461	136.426
899.354	100.277
902.246	110.042
905.139	129.942
908.032	106.589
910.924	100.124
913.817	119.142
916.71	98.0336
919.602	106.656
922.495	137.171
925.388	106.68
928.281	92.4441
931.173	120.98
934.066	78.902
936.959	90.6472
939.851	73.9689
942.744	60.459
945.637	57.4246
948.529	59.0824
951.422	82.1316
954.315	39.9115
957.208	44.6691
960.1	2.02893
962.993	49.731
965.886	56.9086
968.778	26.7319
971.671	53.499
974.564	7.11951
977.457	19.8594
980.349	3.95312
983.242	9.18286
986.135	1.55554
989.027	14.9695
991.92	4.68799
994.813	6.05737
997.705	9.11316
1000.6	20.3109
1003.49	18.4326
1006.38	59.8684
1009.28	12.8077
1012.17	52.3513
1015.06	3.92554
1017.95	2.24719
1020.85	15.5312
1023.74	1.63171
1026.63	11.0642
1029.53	6.98254
1032.42	28.9785
1035.31	28.2865
1038.2	46.4581
1041.1	10.8372
1043.99	15.7518
1046.88	1.97546
1049.77	33.8193
1052.67	13.3166
1055.56	21.6089
1058.45	18.0878
1061.35	2.87854
1064.24	26.4322
1067.13	6.41113
1070.02	4.5542
1072.92	10.998
1075.81	10.0819
1078.7	6.96973
1081.59	22.3905
1084.49	18.2595
1087.38	23.405
1090.27	11.0714
1093.16	11.8518
1096.06	0.881958
1098.95	48.7866
1101.84	3.22638
1104.73	17.4871
1107.63	18.8635
1110.52	17.2889
1113.41	23.9885
1116.31	1.08179
1119.2	23.1642
1122.09	40.1337
1124.98	17.4132
1127.88	27.8805
1130.77	12.8041
1133.66	53.1815
1136.56	36.1737
1139.45	10.5432
1142.34	43.1814
1145.23	29.9445
1148.13	26.5725
1151.02	36.4585
1153.91	50.047
1156.8	52.709
1159.7	51.6609
1162.59	14.5588
1165.48	34.3442
1168.38	36.3531
1171.27	42.545
1174.16	4.6391
1177.05	41.4871
1179.95	26.4799
1182.84	24.7684
1185.73	0.953125
1188.62	56.1119
1191.52	28.3131
1194.41	27.9913
1197.3	5.21612
1200.19	68.6669
1203.09	5.79736
1205.98	31.0622
1208.87	6.7182
1211.77	36.6496
1214.66	34.9511
1217.55	28.1325
1220.44	8.76849
1223.34	23.0549
1226.23	15.0284
1229.12	3.53412
1232.01	18.9713
1234.91	1.09131
1237.8	35.0324
1240.69	23.8098
1243.59	40.2023
1246.48	58.428
1249.37	16.879
1252.26	14.4943
1255.16	20.7509
1258.05	3.20013
1260.94	16.014
1263.83	38.8702
1266.73	14.1387
1269.62	20.3556
1272.51	13.636
1275.4	39.1495
1278.3	38.2604
1281.19	48.757
1284.08	20.2958
1286.98	29.9775
1289.87	19.2482
1292.76	21.9382
1295.65	5.94672
1298.55	25.3379
1301.44	23.2612
1304.33	7.69794
