Measurement: Raman, 532 nm, unoriented, Raman Data Processed
Mineral: Allabogdanite
Rruff sample: R070012
Ideal chemistry: (Fe,Ni)_2_P
Locality: Onello meteorite, Bol'shoy Dolguchan River, Onello River Basin, Aldan, Yakutia, Russia
Source: Michael Scott
Description: Black lath embedded in epoxy, co-type sample
Raman shift (cm-1)	intensity
172.196	0
175.089	8.04193
177.981	15.0454
180.874	21.879
183.767	25.4928
186.659	70.3159
189.552	35.9965
192.445	4.32581
195.338	28.443
198.23	35.4576
201.123	41.6215
204.016	33.5107
206.908	53.5214
209.801	23.6467
212.694	27.1542
215.586	18.6005
218.479	1.76221
221.372	6.81311
224.264	57.8
227.157	68.9233
230.05	42.6962
232.943	41.551
235.835	74.5666
238.728	5.2384
241.621	23.4264
244.513	29.6558
247.406	42.8839
250.299	36.5159
253.191	28.9021
256.084	4.00586
258.977	21.8411
261.87	50.1759
264.762	83.2532
267.655	20.2202
270.548	64.6135
273.44	73.7311
276.333	55.1108
279.226	57.0828
282.118	30.5669
285.011	43.8575
287.904	44.6758
290.796	37.3832
293.689	37.2412
296.582	4.78113
299.475	45.3253
302.367	62.0461
305.26	2.40881
308.153	36.7507
311.045	46.1642
313.938	25.1112
316.831	35.4824
319.724	39.8672
322.616	43.4999
325.509	7.54834
328.402	28.0107
331.294	39.7463
334.187	15.3713
337.08	31.4421
339.972	47.743
342.865	47.373
345.758	15.3743
348.651	66.5723
351.543	61.7704
354.436	58.1807
357.329	13.4076
360.221	40.8204
363.114	39.0264
366.007	66.3689
368.899	47.5444
371.792	5.6322
374.685	39.9524
377.577	50.4249
380.47	39.1213
383.363	53.7982
386.256	73.2694
389.148	39.8583
392.041	8.12109
394.934	43.2876
397.826	35.9885
400.719	52.3845
403.612	22.5664
406.505	19.9868
409.397	48.4241
412.29	17.8324
415.183	24.0731
418.075	29.5046
420.968	21.1409
423.861	60.4662
426.753	4.90405
429.646	51.8943
432.539	55.2878
435.432	30.0678
438.324	24.9733
441.217	43.4968
444.11	43.405
447.002	39.5922
449.895	51.6781
452.788	33.2886
455.68	48.8643
458.573	36.6388
461.466	33.3688
464.358	4.43237
467.251	19.7882
470.144	50.3657
473.037	23.026
475.929	61.4375
478.822	57.8121
481.715	43.0084
484.607	12.719
487.5	12.6628
490.393	61.6704
493.286	36.2112
496.178	38.5652
499.071	49.3944
501.964	36.7506
504.856	43.1426
507.749	32.4399
510.642	7.48877
513.534	23.5247
516.427	34.9228
519.32	47.8055
522.212	42.7913
525.105	51.0015
527.998	41.7965
530.891	46.446
533.783	48.6157
536.676	29.4822
539.569	18.6351
542.461	7.46814
545.354	0.701172
548.247	28.7092
551.139	47.2918
554.032	42.6832
556.925	29.8449
559.818	17.8444
562.71	26.3374
565.603	42.3533
568.496	37.2151
571.388	37.5148
574.281	16.5981
577.174	37.8633
580.067	57.4885
582.959	20.4514
585.852	57.9357
588.745	46.2756
591.637	34.8845
594.53	18.9217
597.423	7.95483
600.315	31.3408
603.208	88.8044
606.101	15.9696
608.994	20.6289
611.886	11.03
614.779	9.56775
617.672	1.39099
620.564	22.3301
623.457	27.1647
626.35	18.2598
629.242	44.2932
632.135	18.3804
635.028	23.7941
637.92	17.3397
640.813	5.82397
643.706	34.4996
646.599	21.5519
649.491	16.7264
652.384	9.2793
655.277	0.939331
658.169	29.5986
661.062	55.8851
663.955	51.1218
666.847	25.1357
669.74	33.5697
672.633	21.6549
675.525	29.2417
678.418	29.3955
681.311	32.7614
684.204	28.9491
687.096	33.1052
689.989	57.0896
692.882	27.4138
695.774	37.2648
698.667	51.3096
701.56	62.9346
704.452	62.2588
707.345	12.8087
710.238	46.4883
713.131	22.8162
716.023	50.9105
718.916	47.0583
721.809	32.2631
724.701	51.4468
727.594	55.6992
730.487	39.1516
733.38	95.6024
736.272	38.7494
739.165	6.28491
742.058	32.2949
744.95	50.6379
747.843	20.6742
750.736	37.999
753.628	3.15259
756.521	2.95654
759.414	72.5209
762.307	24.4006
765.199	30.8436
768.092	60.3531
770.985	22.2728
773.877	36.7274
776.77	40.8341
779.663	22.2655
782.555	12.392
785.448	5.15552
788.341	41.7268
791.234	22.593
794.126	1.09363
797.019	11.3439
799.912	9.76636
802.804	0.081665
805.697	22.2352
808.59	4.29407
811.482	43.5872
814.375	5.50305
817.268	0.904785
820.16	7.69055
823.053	4.21594
825.946	23.9684
828.839	41.8492
831.731	11.5946
834.624	28.9688
837.517	9.78003
840.409	21.5477
843.302	37.0664
846.195	45.6744
849.087	32.4513
851.98	29.2123
854.873	3.07922
857.766	23.7379
860.658	21.3359
863.551	41.5256
866.444	31.8654
869.336	41.4768
872.229	47.0001
875.122	33.9258
878.014	53.1849
880.907	36.8087
883.8	17.3586
886.693	32.7695
889.585	12.8219
892.478	61.0594
895.371	25.9669
898.263	6.67603
901.156	9.43774
904.049	14.2887
906.942	39.2869
909.834	14.7602
912.727	22.614
915.62	44.1307
918.512	17.1488
921.405	35.6883
924.298	68.8518
927.19	15.9702
930.083	38.1793
932.976	35.0593
935.869	17.1904
938.761	2.4198
941.654	11.6736
944.547	27.332
947.439	7.52722
950.332	24.3519
953.225	54.2817
956.117	0.143555
959.01	0.030396
961.903	7.29614
964.795	23.0903
967.688	34.1102
970.581	34.6141
973.474	43.3899
976.366	23.1798
979.259	54.3566
982.152	25.5844
985.044	14.9539
987.937	47.9574
990.83	37.5059
993.722	19.1252
996.615	34.786
999.508	17.0831
1002.4	46.9906
1005.29	26.1768
1008.19	48.6475
1011.08	17.9807
1013.97	4.84949
1016.86	24.4622
1019.76	26.0555
1022.65	40.9379
1025.54	50.4053
1028.43	19.6528
1031.33	8.64026
1034.22	50.8441
1037.11	45.7499
1040.01	1.83716
1042.9	25.746
1045.79	34.6108
1048.68	16.2373
1051.58	24.187
1054.47	12.8495
1057.36	36.3596
1060.26	1.46973
1063.15	63.4537
1066.04	43.9864
1068.93	13.2626
1071.83	48.2225
1074.72	19.1375
1077.61	0.246948
1080.5	31.7496
1083.4	8.05066
1086.29	4.03467
1089.18	26.3709
1092.07	8.38428
1094.97	17.5358
1097.86	10.5859
1100.75	50.7402
1103.64	20.5353
1106.54	15.4928
1109.43	22.1811
1112.32	49.9653
1115.22	46.8314
1118.11	24.0125
1121	26.8241
1123.89	14.7471
1126.79	29.3248
1129.68	14.2826
1132.57	42.7059
1135.46	40.9458
1138.36	21.5825
1141.25	18.9888
1144.14	9.4209
1147.04	16.8794
1149.93	53.3142
1152.82	50.0602
1155.71	45.5261
1158.61	16.9536
1161.5	27.9587
1164.39	19.5459
1167.28	29.6608
1170.18	40.0657
1173.07	28.2255
1175.96	32.241
1178.86	28.3279
1181.75	37.7684
1184.64	21.9037
1187.53	33.2676
1190.43	32.0994
1193.32	25.3538
1196.21	33.0409
1199.1	39.1304
1202	28.8995
1204.89	56.6898
1207.78	39.7542
1210.67	49.2219
1213.57	44.2008
1216.46	1.71326
1219.35	53.2524
1222.25	62.3873
1225.14	24.6294
1228.03	19.6355
1230.92	20.8132
1233.82	14.7975
1236.71	41.4645
1239.6	24.4811
1242.49	45.8066
1245.39	25.6534
1248.28	18.329
1251.17	28.0617
1254.07	66.6266
1256.96	38.2531
1259.85	37.1749
1262.74	58.5668
1265.64	16.42
1268.53	12.8137
1271.42	43.7257
1274.31	48.3981
1277.21	28.1747
1280.1	49.9045
1282.99	26.9778
1285.88	37.6062
1288.78	40.6787
1291.67	37.374
1294.56	36.6619
1297.46	8.40454
1300.35	37.3135
