Measurement: Raman, 785 nm, unoriented, Raman Data Processed
Mineral: Allanite-(Ce)
Rruff sample: R050043
Ideal chemistry: CaCeAl_2_Fe^2+^(Si_2_O_7_)(SiO_4_)O(OH)
Locality: Arendal, Norway
Source: University of Arizona Mineral Museum
Description: Black patially metamict fragment, note that a fragment of this sample was heated and is posted at R080092
Measured chemistry: Ca_1.00_(Ce^3+^_0.22_Ca_0.21_La_0.11_Nd_0.11_Mn_0.08_Gd_0.07_Th_0.06_Y_0.06_Ti_0.05_Mg_0.03_)_Σ=1_(Al_1.82_Fe^3+^_0.40_Fe^2+^_0.78_)_Σ=3_[Si_2.00_O_7_][Si_1.00_O_4_]O(OH)
Raman shift (cm-1)	intensity
184.177	0
187.069	26.9373
189.962	45.2712
192.855	20.7065
195.748	44.439
198.64	102.261
201.533	114.437
204.426	91.9822
207.318	36.1499
210.211	29.979
213.104	41.2019
215.996	40.7703
218.889	45.9995
221.782	24.7061
224.674	13.5461
227.567	27.6465
230.46	9.68945
233.353	45.1506
236.245	17.9294
239.138	12.3494
242.031	47.9912
244.923	22.2417
247.816	38.946
250.709	31.4795
253.601	10.9211
256.494	20.3936
259.387	19.7764
262.28	33.1521
265.172	44.9336
268.065	32.6582
270.958	49.8955
273.85	55.3132
276.743	56.3982
279.636	77.1101
282.529	91.334
285.421	92.8257
288.314	111.683
291.207	97.3513
294.099	84.1453
296.992	89.5977
299.885	96.4287
302.777	97.7395
305.67	123.648
308.563	99.2212
311.455	115.071
314.348	89.9504
317.241	80.8142
320.134	132.546
323.026	59.0022
325.919	88.0691
328.812	92.5193
331.704	110.522
334.597	78.0696
337.49	77.0669
340.382	83.5166
343.275	65.3462
346.168	57.1174
349.061	47.001
351.953	49.3779
354.846	29.2964
357.739	82.3169
360.631	79.0657
363.524	68.166
366.417	9.70825
369.31	9.5271
372.202	9.47925
375.095	54.1001
377.988	6.03931
380.88	33.4468
383.773	29.9189
386.666	68.3362
389.558	12.5994
392.451	43.7903
395.344	8.51538
398.236	13.3418
401.129	6.51782
404.022	33.824
406.915	11.6958
409.807	55.979
412.7	43.7761
415.593	65.1404
418.485	64.6804
421.378	11.2517
424.271	45.8882
427.163	48.0281
430.056	10.6773
432.949	38.7876
435.842	41.8584
438.734	6.13769
441.627	51.6328
444.52	11.0859
447.412	29.668
450.305	1.27808
453.198	14.1899
456.091	8.42871
458.983	18.6575
461.876	8.1687
464.769	23.8118
467.661	22.6946
470.554	16.886
473.447	5.60034
476.339	7.45996
479.232	45.1592
482.125	22.0762
485.017	33.7678
487.91	10.5967
490.803	31.3484
493.696	28.2676
496.588	43.2244
499.481	18.7546
502.374	55.4922
505.266	42.9395
508.159	29.1921
511.052	49.2195
513.944	37.418
516.837	69.6394
519.73	71.3137
522.623	60.7293
525.515	85.2227
528.408	82.7842
531.301	86.4719
534.193	80.3457
537.086	65.7256
539.979	112.138
542.871	78.1091
545.764	124.549
548.657	65.3428
551.55	89.6807
554.442	64.5474
557.335	69.0606
560.228	90.2039
563.12	95.4263
566.013	97.832
568.906	99.4619
571.798	72.1145
574.691	97.4312
577.584	48.9773
580.477	79.1482
583.369	66.1619
586.262	44.7732
589.155	48.6082
592.047	35.4614
594.94	53.0803
597.833	29.5486
600.726	13.1619
603.618	18.6011
606.511	39.4764
609.404	0.430786
612.296	16.2134
615.189	4.94849
618.082	0.188721
620.974	13.055
623.867	23.9137
626.76	47.0721
629.653	20.5038
632.545	45.257
635.438	37.3889
638.331	8.95227
641.223	8.51623
644.116	2.93054
647.009	15.142
649.901	13.2445
652.794	1.81397
655.687	61.5283
658.58	69.3677
661.472	34.8989
664.365	67.3745
667.258	81.6384
670.15	70.8605
673.043	63.6769
675.936	88.4426
678.828	64.3959
681.721	63.6389
684.614	17.6062
687.506	62.083
690.399	88.5219
693.292	57.9271
696.185	63.1675
699.077	37.8456
701.97	47.4623
704.863	55.1523
707.755	47.6351
710.648	38.4973
713.541	24.9088
716.433	49.3582
719.326	38.4149
722.219	23.1719
725.112	35.7571
728.004	43.5371
730.897	25.2932
733.79	24.5727
736.682	5.1687
739.575	50.1036
742.468	39.8404
745.361	37.1603
748.253	75.3826
751.146	27.6481
754.039	48.9006
756.931	42.5529
759.824	40.1932
762.717	1.52698
765.609	31.8141
768.502	22.8157
771.395	23.5708
774.288	16.9806
777.18	36.7819
780.073	4.13415
782.966	42.0378
785.858	31.5889
788.751	36.3757
791.644	6.90552
794.536	26.3641
797.429	14.0763
800.322	9.45593
803.215	4.90869
806.107	6.17688
809	3.67651
811.893	0.707153
814.785	18.5818
817.678	23.2327
820.571	22.1433
823.463	18.332
826.356	43.9014
829.249	45.964
832.141	33.2725
835.034	34.9637
837.927	39.2594
840.82	8.76086
843.712	23.6188
846.605	31.7219
849.498	22.2352
852.39	2.63159
855.283	30.968
858.176	28.1824
861.068	62.6917
863.961	47.8268
866.854	53.3679
869.747	32.0418
872.639	49.5437
875.532	33.47
878.425	51.7098
881.317	31.1735
884.21	42.4485
887.103	24.5516
889.995	78.5171
892.888	34.6984
895.781	26.6896
898.674	42.8781
901.566	13.903
904.459	12.4416
907.352	26.1692
910.244	68.8768
913.137	49.8888
916.03	28.8914
918.923	8.91211
921.815	14.4335
924.708	65.4768
927.601	33.6718
930.493	12.7675
933.386	33.4248
936.279	20.8903
939.171	47.6097
942.064	58.5721
944.957	63.9124
947.85	48.3425
950.742	46.2266
953.635	4.26392
956.528	31.5409
959.42	20.506
962.313	15.01
965.206	26.3619
968.098	18.4202
970.991	42.7555
973.884	17.2435
976.777	37.485
979.669	42.0301
982.562	26.2404
985.455	19.2744
988.347	16.7915
991.24	27.9292
994.133	29.8624
997.025	10.8053
999.918	0.047363
1002.81	25.1541
1005.7	19.6691
1008.6	13.1233
1011.49	43.5214
1014.38	47.2012
1017.27	6.6084
1020.17	37.6328
1023.06	15.558
1025.95	2.57117
1028.85	8.92651
1031.74	6.76111
1034.63	22.8193
1037.52	6.81934
1040.42	7.07837
1043.31	15.7158
1046.2	11.6007
1049.09	11.5851
1051.99	23.1779
1054.88	35.8984
1057.77	10.5118
1060.66	3.58826
1063.56	5.74927
1066.45	42.1672
1069.34	6.85718
1072.24	11.3804
1075.13	10.9468
1078.02	40.454
1080.91	43.4475
1083.81	66.0013
1086.7	7.94116
1089.59	44.166
1092.48	64.5854
1095.38	60.3071
1098.27	109.176
1101.16	37.2543
1104.06	64.3137
1106.95	18.0998
1109.84	54.4307
1112.73	57.699
1115.63	45.1118
1118.52	89.1719
1121.41	67.177
1124.3	106.94
1127.2	49.9832
1130.09	113.577
1132.98	95.9399
1135.88	121.451
1138.77	90.7292
1141.66	106.518
1144.55	119.369
1147.45	108.174
1150.34	108.419
1153.23	124.308
1156.12	104.325
1159.02	95.6006
1161.91	69.9949
1164.8	78.5989
1167.69	102.942
1170.59	82.0823
1173.48	97.2388
1176.37	124.98
1179.27	49.925
1182.16	59.7786
1185.05	107.526
1187.94	12.456
1190.84	75.3447
1193.73	69.7693
1196.62	73.481
1199.51	48.0642
1202.41	72.2959
1205.3	52.761
1208.19	47.1057
1211.09	37.3972
1213.98	27.4763
1216.87	35.5383
1219.76	27.4373
1222.66	58.0886
1225.55	2.25464
1228.44	27.4216
1231.33	12.2676
