Measurement: Raman, 780 nm, unoriented, Raman Data Processed
Mineral: Allabogdanite
Rruff sample: R070012
Ideal chemistry: (Fe,Ni)_2_P
Locality: Onello meteorite, Bol'shoy Dolguchan River, Onello River Basin, Aldan, Yakutia, Russia
Source: Michael Scott
Description: Black lath embedded in epoxy, co-type sample
Raman shift (cm-1)	intensity
148.45	0
151.343	91.6597
154.236	65.7202
157.129	83.0776
160.021	1.57422
162.914	73.8091
165.807	74.9922
168.699	75.6577
171.592	126.967
174.485	59.6123
177.377	44.9673
180.27	49.9033
183.163	140.124
186.055	39.7559
188.948	2.93945
191.841	3.72266
194.734	106.452
197.626	13.624
200.519	48.831
203.412	34.4663
206.304	49.5352
209.197	38.7964
212.09	3.60986
214.982	34.7085
217.875	63.689
220.768	85.561
223.661	25.2847
226.553	89.0967
229.446	33.0137
232.339	12.0273
235.231	75.9194
238.124	68.7168
241.017	1.75977
243.91	39.1831
246.802	65.0596
249.695	38.7778
252.588	62.9194
255.48	89.2773
258.373	50.5176
261.266	55.626
264.158	93.5225
267.051	15.9761
269.944	29.1162
272.837	89.9077
275.729	25.1782
278.622	18.1357
281.515	12.0859
284.407	59.2344
287.3	32.396
290.193	31.0727
293.085	52.4351
295.978	32.1191
298.871	33.8945
301.764	6.43652
304.656	45.5102
307.549	24.7451
310.442	63.1997
313.334	32.3096
316.227	100.429
319.12	114.447
322.012	65.4209
324.905	25.457
327.798	65.9473
330.69	55.1196
333.583	81.5806
336.476	29.3408
339.369	15.7881
342.261	27.356
345.154	84.5859
348.047	21.2656
350.939	48.2891
353.832	88.9009
356.725	87.0083
359.618	83.855
362.51	79.4453
365.403	48.7085
368.296	17.9917
371.188	80.2837
374.081	34.8047
376.974	48.6567
379.866	88.4785
382.759	73.2598
385.652	80.0215
388.545	95.3272
391.437	73.0835
394.33	52.0557
397.223	65.606
400.115	18.4439
403.008	61.3652
405.901	10.5322
408.793	25.0078
411.686	31.8784
414.579	43.6035
417.471	50.8257
420.364	26.9941
423.257	2.72168
426.15	59.2764
429.042	86.9287
431.935	65.3564
434.828	62.9194
437.72	33.0278
440.613	66.938
443.506	7.83106
446.399	71.5835
449.291	2.91699
452.184	49.4568
455.077	44.8779
457.969	61.4153
460.862	32.9138
463.755	24.9793
466.647	79.8464
469.54	55.823
472.433	4.3374
475.325	29.425
478.218	54.22
481.111	26.2146
484.004	17.9548
486.896	21.9248
489.789	35.1841
492.682	6.69458
495.574	26.6521
498.467	73.9033
501.36	57.4529
504.252	57.9077
507.145	34.2927
510.038	11.3584
512.931	30.3157
515.823	26.7583
518.716	73.7148
521.609	37.3042
524.501	38.999
527.394	0.690918
530.287	72.9861
533.179	45.7358
536.072	20.1011
538.965	55.2568
541.858	24.2534
544.75	25.0471
547.643	11.656
550.536	6.33276
553.428	42.4353
556.321	52.4143
559.214	47.1555
562.106	20.3406
564.999	13.0874
567.892	47.0825
570.785	39.1287
573.677	29.6587
576.57	40.238
579.463	55.9846
582.355	12.8403
585.248	28.627
588.141	16.752
591.034	46.0188
593.926	16.5723
596.819	46.4136
599.712	47.136
602.604	18.5493
605.497	17.5054
608.39	47.7249
611.282	1.27393
614.175	73.8513
617.068	66.0859
619.961	37.5544
622.853	4.09424
625.746	15.7349
628.639	16.1997
631.531	19.5703
634.424	6.50244
637.317	43.7385
640.209	29.9402
643.102	15.217
645.995	19.7012
648.888	57.3152
651.78	26.6968
654.673	20.6209
657.566	48.5911
660.458	10.2371
663.351	59.1829
666.244	53.8684
669.136	46.0073
672.029	102.214
674.922	58.314
677.814	76.2908
680.707	87.4648
683.6	73.8455
686.493	41.6113
689.385	17.1936
692.278	89.6516
695.171	41.3408
698.063	65.0049
700.956	83.7908
703.849	61.2429
706.741	66.1841
709.634	121.371
712.527	29.6423
715.42	83.1599
718.312	81.9729
721.205	42.8713
724.098	37.0715
726.99	59.9575
729.883	87.9285
732.776	92.0032
735.668	66.2041
738.561	112.075
741.454	27.3953
744.347	103.368
747.239	84.1091
750.132	28.4507
753.025	51.2876
755.917	6.6416
758.81	12.3823
761.703	55.7502
764.596	8.41504
767.488	24.6985
770.381	30.9775
773.274	17.4219
776.166	59.146
779.059	15.1409
781.952	90.8601
784.844	26.3508
787.737	28.2793
790.63	60.2102
793.523	57.6201
796.415	44.3992
799.308	19.937
802.201	19.8911
805.093	63.7688
807.986	3.05249
810.879	36.7461
813.771	55.0049
816.664	39.6619
819.557	78.9819
822.449	5.94653
825.342	19.1877
828.235	47.6633
831.128	25.8457
834.02	59.561
836.913	7.76123
839.806	10.4724
842.698	66.1443
845.591	35.3162
848.484	19.135
851.376	10.4485
854.269	0.144043
857.162	27.3044
860.055	56.8296
862.947	47.7485
865.84	75.0078
868.733	29.8931
871.625	60.8044
874.518	46.023
877.411	50.6128
880.303	66.1235
883.196	56.1499
886.089	53.5325
888.982	84.3315
891.874	52.2407
894.767	26.2263
897.66	24.6145
900.552	47.594
903.445	18.4817
906.338	27.6682
909.231	22.9805
912.123	38.4246
915.016	24.303
917.909	1.60449
920.801	31.6919
923.694	13.5891
926.587	37.793
929.479	53.3083
932.372	69.4861
935.265	30.0281
938.158	12.6655
941.05	22.6409
943.943	9.48804
946.836	36.1628
949.728	70.0859
952.621	38.3342
955.514	19.7212
958.406	7.34326
961.299	72.9426
964.192	90.9729
967.085	8.81567
969.977	77.1279
972.87	6.61377
975.763	57.1873
978.655	31.7527
981.548	40.9089
984.441	49.5984
987.333	26.5991
990.226	51.7705
993.119	54.8105
996.011	34.687
998.904	20.2844
1001.8	17.0955
1004.69	36.3591
1007.58	17.0605
1010.48	52.0874
1013.37	31.374
1016.26	44.6138
1019.15	72.5007
1022.05	46.6257
1024.94	75.2827
1027.83	71.4136
1030.72	80.4497
1033.62	4.87866
1036.51	23.2495
1039.4	13.5034
1042.3	81.1443
1045.19	79.7664
1048.08	84.334
1050.97	19.1419
1053.87	11.8281
1056.76	57.509
1059.65	44.6604
1062.54	32.7398
1065.44	66.1904
1068.33	34.5237
1071.22	47.3086
1074.11	86.2227
1077.01	30.344
1079.9	38.646
1082.79	35.4133
1085.68	25.2913
1088.58	14.5867
1091.47	41.8728
1094.36	72.5073
1097.26	37.1736
1100.15	29.5459
1103.04	15.2385
1105.93	49.5022
1108.83	60.4275
1111.72	19.0134
1114.61	16.4407
1117.51	68.6763
1120.4	43.3872
1123.29	0.287109
1126.18	37.4856
1129.08	48.7498
1131.97	23.3071
1134.86	66.3972
1137.75	75.0523
1140.65	40.698
1143.54	32.6235
1146.43	60.5181
1149.33	2.7146
1152.22	81.6694
1155.11	41.3113
1158	52.5049
1160.89	93.5999
1163.79	1.14966
1166.68	63.46
1169.57	56.3171
1172.47	39.7874
1175.36	64.2585
1178.25	30.5427
1181.14	42.5752
1184.04	54.3262
1186.93	80.0364
1189.82	80.2625
1192.71	47.4082
1195.61	44.5195
1198.5	70.7795
1201.39	40.5886
1204.29	35.5181
1207.18	42.0693
1210.07	71.958
1212.96	39.4941
1215.86	48.2222
1218.75	56.2842
1221.64	87.5288
1224.54	61.334
1227.43	87.3696
1230.32	81.5366
1233.21	1.58496
1236.11	2.08496
1239	54.1094
1241.89	44.7905
1244.78	44.6602
1247.68	70.5859
1250.57	15.6509
1253.46	12.5903
1256.35	32.9453
1259.25	13.7983
1262.14	56.6475
1265.03	60.8892
1267.92	55.1128
1270.82	47.7002
1273.71	0
