Measurement: Raman, 780 nm, unoriented, Raman Data Processed
Mineral: Alloclasite
Rruff sample: R110002
Ideal chemistry: Co^3+^(AsS)^3-^
Locality: Bou Azzer, Morocco
Source: Marcus Origlieri
Description: Aggregate of steel-gray prismatic to platy crystals associated with spherocobaltite
Raman shift (cm-1)	intensity
167.744	0
170.637	1.47952
173.53	1.65561
176.422	0.327778
179.315	2.98249
182.208	0.898937
185.1	2.69435
187.993	1.66989
190.886	6.7367
193.778	1.95343
196.671	5.98634
199.564	7.68323
202.457	6.52199
205.349	4.85288
208.242	6.48963
211.135	9.54785
214.027	8.77047
216.92	4.87693
219.813	4.8195
222.705	4.95124
225.598	6.43913
228.491	4.43135
231.383	6.32688
234.276	6.8817
237.169	1.9082
240.061	3.39104
242.954	3.34987
245.847	5.36627
248.74	6.08648
251.632	8.52981
254.525	1.93645
257.418	5.28364
260.31	5.28489
263.203	3.64101
266.096	2.6527
268.988	0.025495
271.881	0.19737
274.774	0.066773
277.667	6.12572
280.559	2.62969
283.452	6.77369
286.345	4.6825
289.237	2.75511
292.13	4.09944
295.023	5.36191
297.916	4.79338
300.808	1.35881
303.701	3.59049
306.594	1.54258
309.486	4.93543
312.379	4.99971
315.272	2.81848
318.164	3.01245
321.057	0.477378
323.95	5.84752
326.842	1.39977
329.735	2.14894
332.628	2.11723
335.521	0.097857
338.413	0.970212
341.306	0.418911
344.199	4.9503
347.091	4.7981
349.984	6.13292
352.877	3.24237
355.769	1.68341
358.662	1.88314
361.555	0.911306
364.447	2.6327
367.34	4.70325
370.233	4.49038
373.126	4.24087
376.018	2.97414
378.911	3.89591
381.804	7.02109
384.696	0.965047
387.589	3.01948
390.482	1.76009
393.375	4.68805
396.267	4.13247
399.16	3.81731
402.053	1.8376
404.945	4.69001
407.838	3.03001
410.731	1.68537
413.623	3.33208
416.516	0.475723
419.409	0.996951
422.301	1.7953
425.194	2.6656
428.087	2.53471
430.98	2.17816
433.872	3.84437
436.765	2.5402
439.658	4.92839
442.55	4.75684
445.443	1.03023
448.336	3.96877
451.228	1.1093
454.121	1.77575
457.014	0.671061
459.907	1.07497
462.799	3.39735
465.692	6.51906
468.585	4.0602
471.477	2.05713
474.37	2.42406
477.263	2.88133
480.156	3.61979
483.048	4.75231
485.941	1.93518
488.834	2.04883
491.726	3.80334
494.619	3.30043
497.512	3.27662
500.404	2.25773
503.297	1.95815
506.19	7.03103
509.082	3.29796
511.975	4.38878
514.868	4.80479
517.761	2.41657
520.653	3.56976
523.546	4.07505
526.439	4.66177
529.331	2.77663
532.224	2.40509
535.117	0.604525
538.01	3.84403
540.902	0.129167
543.795	4.09439
546.688	1.44973
549.58	1.45047
552.473	3.05719
555.366	0.781085
558.258	2.58977
561.151	3.35809
564.044	3.64396
566.936	0.205952
569.829	3.4918
572.722	3.05133
575.615	2.74568
578.507	4.00636
581.4	0.603552
584.293	1.43545
587.185	3.34787
590.078	5.48243
592.971	5.60227
595.863	4.86428
598.756	3.53893
601.649	4.89499
604.542	1.47644
607.434	3.99886
610.327	2.19532
613.22	3.34854
616.112	4.16565
619.005	4.35972
621.898	0.831278
624.79	3.15679
627.683	2.03016
630.576	4.47687
633.468	2.66618
636.361	5.08428
639.254	0.168123
642.146	1.14434
645.039	1.56522
647.932	6.90167
650.825	1.3053
653.717	4.35541
656.61	0.202103
659.503	1.70969
662.395	1.84051
665.288	4.28334
668.181	3.90515
671.073	0.886124
673.966	1.70208
676.859	3.02435
679.752	4.88293
682.644	3.23133
685.537	2.8614
688.43	2.11993
691.322	5.77805
694.215	1.79458
697.108	3.29982
700	1.97526
702.893	4.30353
705.786	3.2525
708.679	2.37048
711.571	5.68618
714.464	1.76412
717.357	2.83941
720.249	5.29816
723.142	2.05313
726.035	3.92471
728.928	4.03961
731.82	4.20178
734.713	3.52246
737.606	4.58481
740.498	3.52016
743.391	2.23419
746.284	3.41271
749.176	3.42424
752.069	2.89307
754.962	0.025268
757.855	2.377
760.747	3.73775
763.64	5.15125
766.533	5.66754
769.425	2.35497
772.318	2.72982
775.211	4.8262
778.103	2.6004
780.996	5.02495
783.889	3.24572
786.782	2.41637
789.674	0.896529
792.567	0.821878
795.46	1.67265
798.352	6.99251
801.245	2.26497
804.138	3.10434
807.03	3.73223
809.923	5.3143
812.816	3.27782
815.708	5.68694
818.601	3.61609
821.494	5.78029
824.386	4.71958
827.279	4.13658
830.172	3.55991
833.065	3.76179
835.957	1.05704
838.85	5.53188
841.743	1.25972
844.635	5.1763
847.528	0.454084
850.421	9.12886
853.313	1.66247
856.206	1.21968
859.099	2.96309
861.992	3.29698
864.884	5.56917
867.777	2.71887
870.67	6.84755
873.562	0.209043
876.455	1.5848
879.348	6.86646
882.24	3.26079
885.133	0.295497
888.026	1.52307
890.919	1.19338
893.811	0.718793
896.704	4.48791
899.597	1.51034
902.489	4.10172
905.382	0.355239
908.275	1.69719
911.168	4.27651
914.06	2.77813
916.953	4.81437
919.846	4.74585
922.738	2.08737
925.631	1.81161
928.524	1.52005
931.416	3.1284
934.309	3.48244
937.202	3.11595
940.095	3.51669
942.987	3.20074
945.88	0.03843
948.773	2.51072
951.665	2.95184
954.558	5.67636
957.451	0.32408
960.343	3.31062
963.236	1.60038
966.129	0.366516
969.021	2.23081
971.914	4.56944
974.807	4.50612
977.699	0.797453
980.592	0.37256
983.485	3.09618
986.378	2.13002
989.27	3.35716
992.163	6.63634
995.056	0.978912
997.948	3.63109
1000.84	3.74677
1003.73	4.3717
1006.63	4.88107
1009.52	4.19936
1012.41	0.573292
1015.3	4.77871
1018.2	5.24569
1021.09	2.24993
1023.98	2.22054
1026.88	4.95158
1029.77	4.53854
1032.66	2.06608
1035.55	6.00302
1038.45	7.13368
1041.34	4.70406
1044.23	4.27355
1047.12	2.30548
1050.02	2.9469
1052.91	3.01268
1055.8	4.12843
1058.69	3.86765
1061.59	3.32385
1064.48	1.07398
1067.37	1.54281
1070.27	4.87101
1073.16	2.71794
1076.05	3.81935
1078.94	9.03117
1081.84	3.53192
1084.73	4.98578
1087.62	3.36433
1090.52	3.12406
1093.41	0.392401
1096.3	4.42704
1099.19	5.07661
1102.09	2.7179
1104.98	2.02333
1107.87	4.49673
1110.76	0.952498
1113.66	2.75472
1116.55	0.948303
1119.44	6.72096
1122.33	3.85056
1125.23	3.9907
1128.12	4.93724
1131.01	4.08878
1133.9	1.46876
1136.8	4.59903
1139.69	3.1865
1142.58	5.11881
1145.48	4.95987
1148.37	5.31235
1151.26	2.21966
1154.15	0.491561
1157.05	1.07662
1159.94	1.9671
1162.83	2.87895
1165.72	7.03569
1168.62	3.42545
1171.51	1.66001
1174.4	2.87837
1177.3	5.11197
1180.19	3.17497
1183.08	2.97694
1185.97	5.03524
1188.87	2.5418
1191.76	4.61284
1194.65	1.83301
1197.55	6.91626
1200.44	4.8122
1203.33	4.58239
1206.22	7.02199
1209.12	3.44832
1212.01	3.91162
1214.9	2.10305
1217.79	5.15023
1220.69	0.239213
1223.58	5.21438
1226.47	2.48508
1229.36	4.05186
1232.26	0.842258
1235.15	4.26421
1238.04	7.15533
1240.93	0.592163
1243.83	3.02102
1246.72	2.81098
1249.61	2.66994
1252.51	3.50989
1255.4	4.86377
1258.29	0.923437
1261.18	4.56803
1264.08	3.74617
1266.97	3.63762
1269.86	2.21265
1272.76	0.91306
1275.65	6.33594
1278.54	4.33664
1281.43	2.00911
1284.33	0.672709
