Measurement: Raman, 532 nm, unoriented, Raman Data Processed
Mineral: Alloclasite
Rruff sample: R110002
Ideal chemistry: Co^3+^(AsS)^3-^
Locality: Bou Azzer, Morocco
Source: Marcus Origlieri
Description: Aggregate of steel-gray prismatic to platy crystals associated with spherocobaltite
Raman shift (cm-1)	intensity
158.532	0
161.424	7.05088
164.317	2.01807
167.21	11.5166
170.102	8.16795
172.995	5.9858
175.888	1.43241
178.78	5.38825
181.673	0.139488
184.566	3.61163
187.459	1.72402
190.351	8.55352
193.244	0.866516
196.137	7.42676
199.029	9.60903
201.922	9.20353
204.815	8.20438
207.708	10.994
210.6	18.1601
213.493	16.6466
216.386	15.9114
219.278	14.1452
222.171	16.6809
225.064	14.824
227.956	11.1625
230.849	10.9046
233.742	10.4203
236.635	0.941387
239.527	1.68392
242.42	0.690689
245.313	5.74955
248.205	7.29651
251.098	14.989
253.991	10.3195
256.884	14.0007
259.776	16.9473
262.669	15.7304
265.562	17.4658
268.454	7.72663
271.347	0.890038
274.24	1.34044
277.132	2.07589
280.025	0.49931
282.918	5.28522
285.81	5.76027
288.703	2.18094
291.596	3.09694
294.489	3.1887
297.381	3.04565
300.274	1.04871
303.167	3.13282
306.059	4.60012
308.952	6.65928
311.845	3.02915
314.738	3.78023
317.63	3.37373
320.523	0.405918
323.416	6.0971
326.308	1.09919
329.201	2.87147
332.094	5.15099
334.986	0.017174
337.879	0.853283
340.772	2.66751
343.665	4.10714
346.557	5.0462
349.45	9.43232
352.343	5.41861
355.235	2.65413
358.128	5.07014
361.021	0.044296
363.913	4.39879
366.806	4.82654
369.699	6.91025
372.592	5.70832
375.484	4.85466
378.377	7.84977
381.27	9.308
384.162	3.2037
387.055	4.93362
389.948	6.74245
392.841	8.26103
395.733	5.10012
398.626	2.9884
401.519	2.48254
404.411	2.41038
407.304	3.30698
410.197	0.499111
413.089	3.00267
415.982	1.54601
418.875	0.17057
421.767	3.21451
424.66	4.01603
427.553	4.19796
430.446	6.81156
433.338	1.40729
436.231	0.853771
439.124	4.28827
442.017	6.38806
444.909	1.72684
447.802	2.62979
450.695	0.601089
453.587	0.106415
456.48	0.602108
459.373	4.29079
462.265	2.98272
465.158	4.08906
468.051	5.14702
470.943	6.71734
473.836	1.53817
476.729	3.64197
479.622	3.71203
482.514	6.35286
485.407	2.61107
488.3	2.74583
491.192	5.59055
494.085	2.84583
496.978	2.73566
499.87	1.61646
502.763	0.060333
505.656	4.099
508.549	3.76986
511.441	5.13494
514.334	6.14148
517.227	3.30639
520.119	1.96703
523.012	0.039063
525.905	4.27851
528.798	2.80915
531.69	3.30583
534.583	3.03029
537.476	3.23163
540.368	2.16705
543.261	5.58291
546.154	4.65887
549.047	2.33129
551.939	1.1468
554.832	1.62072
557.725	0.351707
560.617	4.07707
563.51	2.79803
566.403	4.21927
569.295	0.773655
572.188	5.78792
575.081	2.69978
577.973	2.41988
580.866	4.75978
583.759	1.70012
586.652	0.092239
589.544	3.65778
592.437	6.19184
595.33	7.16759
598.222	5.22344
601.115	6.45153
604.008	6.59162
606.901	0.728954
609.793	4.69366
612.686	2.34001
615.579	6.66099
618.471	6.22751
621.364	5.44728
624.257	1.83555
627.149	3.37907
630.042	3.65217
632.935	6.62994
635.828	3.84713
638.72	5.53453
641.613	0.553482
644.506	0.429489
647.398	0.027042
650.291	7.48643
653.184	0.455654
656.077	5.63139
658.969	0.710464
661.862	1.86292
664.755	0.901058
667.647	6.30658
670.54	7.1624
673.433	0.114536
676.325	0.055897
679.218	0.249565
682.111	5.5728
685.004	0.840134
687.896	1.90848
690.789	0.825485
693.682	3.685
696.574	4.12378
699.467	3.36355
702.36	2.81511
705.252	4.63417
708.145	1.1518
711.038	4.11452
713.931	3.64333
716.823	5.89632
719.716	5.09755
722.609	0.149773
725.501	2.13621
728.394	8.53009
731.287	6.32181
734.179	4.53731
737.072	4.40503
739.965	3.22054
742.858	8.37861
745.75	3.07146
748.643	1.5644
751.536	5.13547
754.428	5.5076
757.321	2.14002
760.214	1.78899
763.106	2.2558
765.999	3.49129
768.892	7.51271
771.785	5.11322
774.677	0.746479
777.57	2.28513
780.463	4.4313
783.356	2.91716
786.248	3.74922
789.141	2.44845
792.034	1.78017
794.926	0.005814
797.819	0.279522
800.712	1.71017
803.604	7.07292
806.497	1.53535
809.39	2.47323
812.283	2.96558
815.175	5.49822
818.068	3.04772
820.961	5.2469
823.853	4.1832
826.746	8.66648
829.639	7.93362
832.531	5.3368
835.424	6.65687
838.317	7.82935
841.21	10.0456
844.102	10.3067
846.995	6.31421
849.888	9.20003
852.78	7.84015
855.673	11.8392
858.566	5.77531
861.458	7.36626
864.351	10.5325
867.244	6.13244
870.136	5.36662
873.029	6.90662
875.922	6.73965
878.815	4.65747
881.707	4.95987
884.6	2.53781
887.493	2.43078
890.385	2.85028
893.278	0.324215
896.171	1.12811
899.064	3.45598
901.956	1.92628
904.849	2.89281
907.742	0.923904
910.634	4.59323
913.527	1.96631
916.42	2.21832
919.312	2.95061
922.205	3.46092
925.098	5.58284
927.991	2.52524
930.883	2.47878
933.776	1.61464
936.669	1.97008
939.562	3.72633
942.454	3.43411
945.347	3.85897
948.24	2.82526
951.132	3.62485
954.025	2.1388
956.918	2.16786
959.81	4.98571
962.703	7.10246
965.596	0.235401
968.489	1.9352
971.381	3.22519
974.274	2.24659
977.167	1.53897
980.059	2.31961
982.952	3.51664
985.845	2.5094
988.737	4.78973
991.63	2.99606
994.523	0.623764
997.415	7.61108
1000.31	5.38718
1003.2	4.83251
1006.09	0.720367
1008.99	5.50059
1011.88	2.66247
1014.77	2.23406
1017.66	7.18458
1020.56	5.50589
1023.45	0.545765
1026.34	5.68055
1029.23	3.57158
1032.13	2.46314
1035.02	2.82563
1037.91	4.62044
1040.81	5.67796
1043.7	3.38666
1046.59	3.71733
1049.48	8.54042
1052.38	3.28174
1055.27	3.31313
1058.16	2.99338
1061.06	4.94329
1063.95	1.88602
1066.84	3.94144
1069.73	1.77847
1072.63	4.88806
1075.52	1.77664
1078.41	2.7869
1081.3	5.2262
1084.2	0.858379
1087.09	4.63207
1089.98	9.1343
1092.88	6.22312
1095.77	6.20833
1098.66	1.8828
1101.55	3.80426
1104.45	2.96684
1107.34	0.593681
1110.23	5.19831
1113.12	2.43367
1116.02	2.85747
1118.91	0.139042
1121.8	6.45942
1124.69	0.075787
1127.59	1.48493
1130.48	3.56162
1133.37	3.7387
1136.27	5.61636
1139.16	5.07455
1142.05	4.80131
1144.94	5.29266
1147.84	2.1001
1150.73	3.06003
1153.62	3.86633
1156.51	4.40034
1159.41	6.8448
1162.3	4.92866
1165.19	1.7998
1168.09	0.265766
1170.98	0.260662
1173.87	2.24028
1176.76	3.11695
1179.66	5.274
1182.55	3.18856
1185.44	1.99952
1188.33	1.30977
1191.23	5.58814
1194.12	6.15585
1197.01	5.9938
1199.9	8.09569
1202.8	5.42159
1205.69	4.67786
1208.58	7.47627
1211.48	1.70441
1214.37	0.064613
1217.26	1.46585
1220.15	9.78832
1223.05	6.62522
1225.94	0.132622
1228.83	6.73046
1231.72	4.87503
1234.62	6.92815
1237.51	3.35053
1240.4	5.17273
1243.3	1.52667
1246.19	4.08963
1249.08	0.56501
1251.97	4.58019
1254.87	4.17213
1257.76	0.510143
1260.65	2.9006
1263.54	3.52817
1266.44	4.25281
1269.33	3.65734
1272.22	8.04481
1275.12	0.967701
1278.01	7.39342
1280.9	2.34162
1283.79	4.78559
1286.69	2.63171
1289.58	2.58806
1292.47	1.35553
1295.36	7.03657
1298.26	2.91621
1301.15	0.168251
