Measurement: Raman, 785 nm, unoriented, Raman Data RAW
Mineral: Altaite
Rruff sample: R060939
Ideal chemistry: Pb^2+^Te^2-^
Locality: 870 Level, Mattagami mine, Matagami, Quebec, Canada
Source: Michael Scott
Description: Gray metallic crystals with excellent cleavage
Measured chemistry: Pb_1.00_Te_1.00_
Raman shift (cm-1)	intensity
179.863	850.347
182.756	798.46
185.649	826.525
188.542	837.49
191.434	818.137
194.327	821.47
197.22	771.632
200.112	803.75
203.005	771.566
205.898	743.412
208.791	794.188
211.683	726.96
214.576	764.431
217.469	733.131
220.361	755.592
223.254	761.491
226.147	760.793
229.04	730.765
231.932	722.572
234.825	719.547
237.718	758.745
240.61	717.238
243.503	719.809
246.396	722.144
249.288	708.122
252.181	701.445
255.074	709.857
257.966	712.544
260.859	714.298
263.752	720.093
266.645	727.918
269.537	730.676
272.43	684.114
275.323	682.156
278.215	735.8
281.108	672.205
284.001	650.354
286.894	694.272
289.786	645.753
292.679	692.263
295.572	671.679
298.464	661.461
301.357	657.65
304.25	643.691
307.142	671.136
310.035	660.163
312.928	670.951
315.82	675.315
318.713	688.968
321.606	635.979
324.499	651.815
327.391	627.623
330.284	675.7
333.177	677.762
336.069	650.948
338.962	645.089
341.855	651.288
344.748	683.734
347.64	663.405
350.533	643.558
353.426	654.612
356.318	671.297
359.211	672.463
362.104	651.869
364.996	650.266
367.889	652.34
370.782	662.682
373.675	663.785
376.567	648.4
379.46	693.948
382.353	645.568
385.245	672.24
388.138	663.728
391.031	668.221
393.923	660.396
396.816	638.102
399.709	671.492
402.601	667.952
405.494	652.712
408.387	664.632
411.28	645.465
414.172	626.831
417.065	620.266
419.958	629.627
422.85	662.673
425.743	642.76
428.636	656.034
431.529	655.516
434.421	644.388
437.314	670.513
440.207	625.315
443.099	679.945
445.992	639.253
448.885	630.047
451.777	640.469
454.67	615.4
457.563	631.731
460.455	639.475
463.348	643.832
466.241	622.622
469.134	641.987
472.026	664.249
474.919	620.877
477.812	658.472
480.704	660.564
483.597	649.892
486.49	669.567
489.382	664.028
492.275	596.616
495.168	653.576
498.061	690.861
500.953	655.751
503.846	648.356
506.739	634.918
509.631	636.691
512.524	642.504
515.417	640.745
518.309	669.028
521.202	652.722
524.095	635.102
526.988	671.325
529.88	653.786
532.773	613.931
535.666	645.081
538.558	650.682
541.451	678.829
544.344	679.486
547.236	644.778
550.129	631.172
553.022	673.654
555.915	663.753
558.807	641.733
561.7	631.121
564.593	682.521
567.485	632.439
570.378	616.694
573.271	615.385
576.163	677.455
579.056	656.618
581.949	647.806
584.842	658.285
587.734	656.909
590.627	643.484
593.52	683.686
596.413	623.454
599.305	640.627
602.198	664.83
605.091	638.086
607.983	613.071
610.876	654.898
613.769	615.695
616.661	609.241
619.554	621.458
622.447	658.799
625.34	654.878
628.232	640.108
631.125	654.238
634.018	695.17
636.91	622.2
639.803	655.635
642.696	663.217
645.588	634
648.481	671.746
651.374	593.375
654.266	657.818
657.159	632.803
660.052	631.029
662.945	648.279
665.837	633.521
668.73	660.276
671.623	693.508
674.515	661.813
677.408	651.974
680.301	669.418
683.193	636.965
686.086	630.947
688.979	635.867
691.872	617.263
694.764	610.119
697.657	615.298
700.55	618.922
703.442	629.524
706.335	599.683
709.228	640.383
712.12	629.485
715.013	630.566
717.906	624.747
720.799	634.195
723.691	650.317
726.584	595.001
729.477	639.653
732.369	637.157
735.262	589.18
738.155	605.458
741.048	616.88
743.94	629.553
746.833	597.432
749.726	655.125
752.618	594.472
755.511	655.783
758.404	622.647
761.296	634.1
764.189	601.894
767.082	566.972
769.975	570.106
772.867	598.873
775.76	641.13
778.653	578.102
781.545	630.491
784.438	624.521
787.331	645.167
790.223	635.046
793.116	609.816
796.009	630.786
798.902	560.682
801.794	599.797
804.687	618.497
807.58	610.609
810.472	625.888
813.365	626.096
816.258	595.042
819.15	613.087
822.043	611.564
824.936	607.966
827.828	622.903
830.721	589.96
833.614	628.27
836.507	595.889
839.399	602.632
842.292	596.191
845.185	588.979
848.077	613.154
850.97	608.334
853.863	611.863
856.755	611.033
859.648	610.112
862.541	604.536
865.434	610.806
868.326	611.061
871.219	590.049
874.112	631.118
877.004	618.153
879.897	600.714
882.79	587.656
885.683	621.24
888.575	601.194
891.468	607.304
894.361	572.241
897.253	603.416
900.146	601.978
903.039	587.475
905.931	607.173
908.824	581.972
911.717	574.591
914.61	571.622
917.502	608.67
920.395	570.033
923.288	587.737
926.18	594.322
929.073	609.401
931.966	578.58
934.859	590.878
937.751	579.883
940.644	565.858
943.537	583.396
946.429	593.958
949.322	592.065
952.215	574.966
955.107	587.326
958	576.063
960.893	604.57
963.785	595.611
966.678	581.295
969.571	606.458
972.464	593.655
975.356	564.014
978.249	597.601
981.142	588.679
984.034	547.388
986.927	594.76
989.82	596.094
992.712	593.114
995.605	593.685
998.498	595.708
1001.39	565.164
1004.28	576.113
1007.18	591.324
1010.07	595.411
1012.96	589.896
1015.85	580.507
1018.75	577.884
1021.64	599.223
1024.53	584.681
1027.42	566.52
1030.32	599.309
1033.21	550.58
1036.1	571.74
1039	597.845
1041.89	560.056
1044.78	599.376
1047.67	603.314
1050.57	606.533
1053.46	585.735
1056.35	598.525
1059.24	593.43
1062.14	593.376
1065.03	568.722
1067.92	571.662
1070.82	573.785
1073.71	613.066
1076.6	597.261
1079.49	590.247
1082.39	612.824
1085.28	628.67
1088.17	570.069
1091.06	560.346
1093.96	605.219
1096.85	550.574
1099.74	547.39
1102.63	574.64
1105.53	558.022
1108.42	574.242
1111.31	569.186
1114.21	592.497
1117.1	572.527
1119.99	579.183
1122.88	578.389
1125.78	575.286
1128.67	588.984
1131.56	576.853
1134.45	560.552
1137.35	556.448
1140.24	603.617
1143.13	561.844
1146.03	545.226
1148.92	560.796
1151.81	567.313
1154.7	520.736
1157.6	563.452
1160.49	576.053
1163.38	573.482
1166.28	577.508
1169.17	541.126
1172.06	573.818
1174.95	563.708
1177.85	586.554
1180.74	561.965
1183.63	557.047
1186.52	533.004
1189.42	557.626
1192.31	570.827
1195.2	551.018
1198.09	577.513
1200.99	579.844
1203.88	547.797
1206.77	569.198
1209.66	586.681
1212.56	549.214
1215.45	592.393
1218.34	552.08
1221.24	557.379
1224.13	570.922
1227.02	578.296
1229.91	531.292
1232.81	556.825
1235.7	566.854
1238.59	581.445
1241.48	584.253
1244.38	564.168
1247.27	554.024
1250.16	543.462
1253.06	582.833
1255.95	549.709
1258.84	552.576
