Measurement: Raman, 532 nm, unoriented, Raman Data RAW
Mineral: Altaite
Rruff sample: R060939
Ideal chemistry: Pb^2+^Te^2-^
Locality: 870 Level, Mattagami mine, Matagami, Quebec, Canada
Source: Michael Scott
Description: Gray metallic crystals with excellent cleavage
Measured chemistry: Pb_1.00_Te_1.00_
Raman shift (cm-1)	intensity
89.3616	0
92.7365	-0.315645
96.1113	-0.691325
99.4861	-0.0961809
102.861	0.0123062
106.236	0.227862
109.611	-0.389489
112.985	0.934997
116.36	0.0161326
119.735	-0.173421
123.11	0.571212
126.485	0.385622
129.859	-0.544944
133.234	0.494013
136.609	0.299426
139.984	-0.409814
143.359	-0.591025
146.733	-0.424896
150.108	0.134394
153.483	0.0331126
156.858	0.261059
160.233	0.0669759
163.608	0.119208
166.982	0.122862
170.357	-0.221082
173.732	-0.199646
177.107	0.312134
180.482	-0.465645
183.857	-0.495573
187.231	-0.0317283
190.606	0.00740475
193.981	0.0922307
197.356	0.352439
200.731	-0.0806481
204.105	-0.470063
207.48	-0.230301
210.855	0.0769835
214.23	-0.254024
217.605	-0.0164633
220.98	-0.223685
224.354	0.18426
227.729	-0.233777
231.104	0.32735
234.479	0.163512
237.854	0.199099
241.228	0.136796
244.603	-0.378429
247.978	-0.159449
251.353	0.013212
254.728	0.27124
258.103	-0.220945
261.477	0.240574
264.852	-0.0785718
268.227	0.449323
271.602	-0.140118
274.977	0.0393428
278.351	-0.271767
281.726	-0.205699
285.101	0.126552
288.476	-0.529133
291.851	-0.37427
295.226	-0.392537
298.6	0.00231173
301.975	0.241599
305.35	0.105829
308.725	-0.146686
312.099	0.248114
315.474	0.0585874
318.849	0.0670216
322.224	-0.193162
325.599	-0.106224
328.974	-0.328721
332.348	0.187754
335.723	-0.111482
339.098	0.149872
342.473	0.178211
345.848	0.34431
349.223	0.177783
352.597	-0.146432
355.972	-0.455112
359.347	0.144052
362.722	0.00841735
366.097	0.129418
369.471	-0.0804388
372.846	-0.136084
376.221	0.114883
379.596	-0.0810582
382.971	0.0522782
386.346	-0.0617756
389.72	-0.17302
393.095	-0.156542
396.47	0.118593
399.845	0.249263
403.22	-0.0787551
406.594	-0.0962893
409.969	-0.155157
413.344	-0.26089
416.719	0.020325
420.094	-0.181491
423.469	-0.227541
426.843	-0.0456409
430.218	0.221776
433.593	-0.176285
436.968	0.0718036
440.343	0.312345
443.717	-0.0121424
447.092	0.180974
450.467	-0.278725
453.842	0.302792
457.217	-0.0878406
460.591	0.152956
463.966	0.0630628
467.341	0.0542507
470.716	0.29083
474.091	0.131566
477.466	0.0111146
480.84	-0.200062
484.215	0.0760845
487.59	-0.253596
490.965	0.0930432
494.34	-0.079306
497.714	-0.131577
501.089	0.184481
504.464	0.19357
507.839	-0.382965
511.214	-0.154715
514.589	-0.214879
517.963	-0.0566516
521.338	0.20682
524.713	0.06886
528.088	-0.122029
531.463	-0.237865
534.837	0.1202
538.212	-0.0441442
541.587	0.0807997
544.962	-0.206783
548.337	-0.634521
551.712	0.113042
555.086	0.168383
558.461	0.0736736
561.836	-0.359858
565.211	-0.143402
568.586	-0.00875415
571.96	-0.185207
575.335	-0.0667501
578.71	0.151133
582.085	0.243431
585.46	0.179852
588.835	-0.264464
592.209	-0.163518
595.584	0.10708
598.959	0.0981728
602.334	0.0788651
605.709	0.216158
609.083	0.284676
612.458	-0.102979
615.833	-0.00597183
619.208	-0.0476289
622.583	0.151819
625.957	0.0848436
629.332	-0.124654
632.707	0.0332559
636.082	-0.457369
639.457	0.0337222
642.832	-0.138163
646.206	0.348317
649.581	-0.295102
652.956	0.141683
656.331	0.0539951
659.706	0.103457
663.081	0.216008
666.455	0.0353285
669.83	-0.0313906
673.205	0.0376456
676.58	-0.0998433
679.955	0.244125
683.329	0.00128294
686.704	-0.223573
690.079	0.158969
693.454	-0.12349
696.829	-0.0997625
700.203	0.123311
703.578	-0.0103349
706.953	0.222552
710.328	-0.0996968
713.703	0.0653206
717.078	-0.0950377
720.452	-0.16661
723.827	0.174484
727.202	0.193413
730.577	0.245708
733.952	-0.318035
737.327	-0.156185
740.701	-0.305325
744.076	0.202097
747.451	-0.0180133
750.826	0.398692
754.201	0.135681
757.575	0.0157021
760.95	0.00117252
764.325	0.110046
767.7	0.257251
771.075	0.0725254
774.449	-0.154961
777.824	-0.453325
781.199	-0.010578
784.574	-0.152681
787.949	0.141921
791.323	0.186442
794.698	-0.247766
798.073	-0.325916
801.448	-0.000942928
804.823	-0.16444
808.198	-0.266792
811.572	0.178061
814.947	-0.162319
818.322	0.158693
821.697	0.104585
825.072	0.0412469
828.447	0.0192283
831.821	0.00780845
835.196	0.122609
838.571	0.078466
841.946	-0.26074
845.321	0.13712
848.695	-0.161824
852.07	-0.334149
855.445	-0.159078
858.82	0.00323276
862.195	-0.338478
865.569	0.103876
868.944	-0.143195
872.319	0.0188481
875.694	0.262496
879.069	0.00639975
882.444	0.0474012
885.818	0.0957804
889.193	0.0436016
892.568	-0.059253
895.943	0.137857
899.318	-0.118762
902.692	-0.258514
906.067	-0.133067
909.442	0.104441
912.817	0.0302709
916.192	0.399183
919.567	-0.0332215
922.941	-0.324111
926.316	-0.0163933
929.691	0.0454333
933.066	0.132555
936.441	0.117953
939.816	-0.105625
943.19	-0.302712
946.565	0.0831431
949.94	0.310259
953.315	-0.148747
956.69	0.166839
960.064	-0.0525943
963.439	0.0243674
966.814	-0.240597
970.189	-0.405127
973.564	-0.532746
976.938	0.0823007
980.313	-0.170807
983.688	0.182179
987.063	0.139429
990.438	-0.266086
993.813	-0.130841
997.187	-0.132455
1000.56	-0.0929312
1003.94	0.0870675
1007.31	0.0934769
1010.69	0.0930945
1014.06	-0.135414
1017.44	0.0617403
1020.81	0.2204
1024.19	0.152632
1027.56	-0.0684317
1030.94	0.0818085
1034.31	0.104838
1037.68	-0.0840709
1041.06	0.0617313
1044.43	-0.117658
1047.81	0.0404925
1051.18	-0.229096
1054.56	-0.423755
1057.93	0.241473
1061.31	-0.387246
1064.68	-0.307473
1068.06	-0.0500334
1071.43	0.237913
1074.81	0.206418
1078.18	-0.310395
1081.56	0.11492
1084.93	-0.236971
1088.31	0.0781406
1091.68	-0.236543
1095.06	-0.325187
1098.43	-0.0873768
1101.81	0.21236
1105.18	-0.0814052
1108.56	0.0125369
1111.93	-0.387943
1115.31	-0.0436687
1118.68	-0.055855
1122.06	0.0178206
1125.43	0.444543
1128.81	-0.217543
1132.18	-0.192969
1135.56	-0.28345
1138.93	-0.142264
1142.3	-0.0536112
1145.68	-0.0108642
1149.05	-0.142867
1152.43	0.1179
1155.8	0.222404
1159.18	-0.141161
1162.55	-0.14569
1165.93	-0.0955359
1169.3	-0.229011
1172.68	0.210208
1176.05	-0.0131935
1179.43	0.0430138
1182.8	0.223724
1186.18	-0.00117009
1189.55	0.184888
1192.93	-0.0543376
1196.3	0.102415
1199.68	-0.070824
1203.05	0.179226
1206.43	-0.188892
1209.8	-0.284404
1213.18	-0.307239
1216.55	0.0857753
1219.92	-0.0952396
1223.3	-0.0566551
1226.67	0.353103
1230.05	0.035908
1233.42	-0.00951897
1236.8	-0.201687
1240.17	-0.181049
1243.55	-0.031665
1246.92	-0.11645
1250.3	0.222051
1253.67	0.0928573
1257.05	-0.114487
1260.42	0.0214339
1263.8	0.225936
1267.17	0.206165
1270.55	-0.16029
1273.92	0.303963
1277.3	0.207482
1280.67	0.106659
1284.05	0.118051
1287.42	-0.0460465
1290.8	0.230018
1294.17	-0.189231
1297.55	0.156448
1300.92	0.262776
