Measurement: Raman, 785 nm, unoriented, Raman Data Processed
Mineral: Aluminium
Rruff sample: R070230
Ideal chemistry: Al
Locality: Mud Volcano, Bulla Apsheren penninsula, Caspian Sea, Qobustan (Gobustan; Kobustan) Rayonu, Azerbaijan
Source: Michael Scott
Description: Metallic gray blebs in matrix embedded in epoxy, no Raman activity because of crystal symmetry
Raman shift (cm-1)	intensity
174.534	0
177.427	26.625
180.32	31.0544
183.212	37.4224
186.105	39.0591
188.998	23.1086
191.891	48.7007
194.783	77.7664
197.676	92.7676
200.569	80.729
203.461	85.4375
206.354	78.1719
209.247	32.1863
212.139	2.89062
215.032	33.0232
217.925	18.385
220.818	13.5879
223.71	16.1882
226.603	31.0762
229.496	1.8999
232.388	5.90625
235.281	0.034668
238.174	20.344
241.066	13.4856
243.959	61.9707
246.852	68.3376
249.745	65.5166
252.637	81.4856
255.53	89.5586
258.423	91.3511
261.315	101.023
264.208	134.565
267.101	137.038
269.993	127.983
272.886	122.677
275.779	127.725
278.672	108.027
281.564	96.2507
284.457	120.618
287.35	106.647
290.242	107.729
293.135	84.9724
296.028	73.3389
298.921	78.1165
301.813	98.9536
304.706	124.76
307.599	84.1223
310.491	80.1223
313.384	75.8731
316.277	40.6758
319.169	21.5325
322.062	13.2856
324.955	12.0278
327.847	2.85376
330.74	22.3025
333.633	19.5312
336.526	12.2666
339.418	19.0525
342.311	23.408
345.204	12.6694
348.096	16.4221
350.989	21.2507
353.882	25.7251
356.774	1.60864
359.667	19.8008
362.56	16.0693
365.452	23.9192
368.345	9.47192
371.238	5.38452
374.131	30.7505
377.023	30.5698
379.916	54.5076
382.809	22.4568
385.701	16.7429
388.594	51.5022
391.487	9.13159
394.38	7.53638
397.272	32.3547
400.165	27.9055
403.058	1.8125
405.95	6.21606
408.843	29.1111
411.736	47.8557
414.628	43.9326
417.521	33.1475
420.414	33.9487
423.307	64.0337
426.199	46.6274
429.092	6.25708
431.985	23.9123
434.877	32.5713
437.77	35.0696
440.663	39.9954
443.555	45.8381
446.448	60.7637
449.341	41.196
452.234	46.8965
455.126	65.7044
458.019	49.8398
460.912	27.5811
463.804	19.0803
466.697	63.3594
469.59	54.2446
472.483	35.8486
475.375	9.87305
478.268	10.7654
481.161	51.3899
484.053	3.57739
486.946	41.3894
489.839	23.4199
492.731	27.1121
495.624	19.4456
498.517	21.343
501.409	52.721
504.302	34.6233
507.195	13.3455
510.088	31.1455
512.98	22.6101
515.873	37.3467
518.766	22.4194
521.658	14.8247
524.551	3.7356
527.444	14.9866
530.337	17.019
533.229	32.3694
536.122	24.3076
539.015	17.8252
541.907	9.28687
544.8	26.8472
547.693	33.9128
550.585	45.7754
553.478	43.1753
556.371	76.2476
559.263	28.2031
562.156	60.5869
565.049	65.6077
567.942	50.002
570.834	56.717
573.727	65.1079
576.62	17.0476
579.512	51.1895
582.405	36.688
585.298	45.2737
588.19	46.9815
591.083	44.5422
593.976	84.5105
596.869	35.7117
599.761	37
602.654	61.7915
605.547	37.2913
608.439	57.4224
611.332	53.4009
614.225	73.8882
617.117	42.2131
620.01	27.0247
622.903	70.1199
625.795	18.7026
628.688	28.3701
631.581	41.1602
634.474	31.5403
637.366	38.5928
640.259	21.1423
643.152	12.4338
646.044	37.6292
648.937	17.9153
651.83	12.7097
654.722	24.5635
657.615	26.8459
660.508	32.8457
663.401	18.3794
666.293	20.6348
669.186	2.83935
672.079	56.0374
674.971	24.7854
677.864	54.592
680.757	28.0815
683.649	28.0623
686.542	30.9607
689.435	13.3013
692.328	35.2258
695.22	4.57446
698.113	19.5608
701.006	63.3296
703.898	59.5437
706.791	23.6314
709.684	62.1724
712.577	46.4009
715.469	41.1572
718.362	37.5952
721.255	34.2165
724.147	42.5051
727.04	33.8774
729.933	42.0444
732.825	16.99
735.718	32.4807
738.611	49.7744
741.504	10.8691
744.396	22.5317
747.289	8.06909
750.182	32.47
753.074	8.82373
755.967	11.8635
758.86	55.127
761.752	26.8337
764.645	4.03076
767.538	31.8269
770.431	3.20361
773.323	58.0518
776.216	50.4265
779.109	25.6326
782.001	23.4582
784.894	43.4246
787.787	40.6406
790.679	23.3733
793.572	51.3198
796.465	62.3633
799.357	33.2339
802.25	34.9536
805.143	32.1111
808.036	26.5681
810.928	36.9346
813.821	16.9495
816.714	19.9641
819.606	44.0735
822.499	47.5957
825.392	12.0105
828.284	3.01025
831.177	40.0286
834.07	44.7219
836.963	23.5239
839.855	19.7278
842.748	14.3999
845.641	52.2893
848.533	38.2285
851.426	37.3235
854.319	24.6096
857.212	23.5576
860.104	56.7053
862.997	45.4883
865.89	37.7012
868.782	59.967
871.675	52.7954
874.568	15.3567
877.46	38.4946
880.353	36.654
883.246	44.8525
886.139	41.5598
889.031	60.2615
891.924	38.811
894.817	48.5264
897.709	4.1394
900.602	11.4692
903.495	9.62451
906.388	61.9477
909.28	36.8149
912.173	38.8018
915.066	46.7783
917.958	11.7082
920.851	14.3074
923.744	53.606
926.636	23.7017
929.529	22.811
932.422	30.4595
935.314	20.8801
938.207	27.9856
941.1	36.4089
943.993	6.68457
946.885	20.9507
949.778	36.3215
952.671	88.9595
955.563	37.4524
958.456	49.3633
961.349	41.7922
964.241	11.6333
967.134	30.709
970.027	7.2417
972.92	47.9329
975.812	21.1316
978.705	31.4062
981.598	31.3013
984.49	18.9246
987.383	24.6599
990.276	61.1707
993.168	58.0615
996.061	42.2461
998.954	22.3479
1001.85	0.652588
1004.74	28.5967
1007.63	3.72266
1010.52	54.3708
1013.42	82.7812
1016.31	47.9204
1019.2	31.7869
1022.1	20.8962
1024.99	21.5977
1027.88	35.8852
1030.77	19.3137
1033.67	66.4522
1036.56	23.811
1039.45	27.5364
1042.34	43.063
1045.24	16.3506
1048.13	39.5752
1051.02	44.6917
1053.91	19.9399
1056.81	55.4734
1059.7	70.3799
1062.59	29.2056
1065.49	33.3325
1068.38	36.6543
1071.27	37.9226
1074.16	19.5276
1077.06	0.833496
1079.95	65.7493
1082.84	49.5598
1085.73	32.3728
1088.63	26.1272
1091.52	42.8806
1094.41	60.6982
1097.31	23.8472
1100.2	68.092
1103.09	41.5376
1105.98	24.0037
1108.88	57.7398
1111.77	10.6392
1114.66	48.845
1117.56	15.3015
1120.45	8.15918
1123.34	37.8567
1126.23	53.6724
1129.12	38.1736
1132.02	57.2368
1134.91	63.4028
1137.8	27.5627
1140.7	21.7541
1143.59	11.5723
1146.48	60.5464
1149.37	46.4541
1152.27	67.0798
1155.16	52.0523
1158.05	55.4688
1160.94	51.0591
1163.84	61.4863
1166.73	18.1914
1169.62	16.6379
1172.52	85.8267
1175.41	7.89307
1178.3	49.0288
1181.19	14.3315
1184.09	42.0293
1186.98	27.5308
1189.87	49.0415
1192.77	81.4895
1195.66	24.1123
1198.55	9.46191
1201.44	22.7742
1204.34	52.7918
1207.23	10.1209
1210.12	10.6101
1213.01	23.5142
1215.91	57.8159
1218.8	20.773
1221.69	11.6089
1224.58	19.5269
