Measurement: Raman, 532 nm, unoriented, Raman Data Processed
Mineral: Aluminium
Rruff sample: R070230
Ideal chemistry: Al
Locality: Mud Volcano, Bulla Apsheren penninsula, Caspian Sea, Qobustan (Gobustan; Kobustan) Rayonu, Azerbaijan
Source: Michael Scott
Description: Metallic gray blebs in matrix embedded in epoxy, no Raman activity because of crystal symmetry
Raman shift (cm-1)	intensity
184.374	0
187.267	40.4014
190.16	46.0149
193.052	3.51904
195.945	49.669
198.838	21.9023
201.731	60.4397
204.623	55.4832
207.516	38.3545
210.409	65.1892
213.301	12.0335
216.194	8.39502
219.087	58.1624
221.979	41.6702
224.872	11.1201
227.765	28.8096
230.657	24.3061
233.55	33.8503
236.443	1.52344
239.336	11.8064
242.228	50.0129
245.121	65.3748
248.014	42.9141
250.906	41.0408
253.799	61.6001
256.692	46.4815
259.584	56.9197
262.477	63.4163
265.37	80.3774
268.263	63.5727
271.155	73.658
274.048	71.1458
276.941	83.4224
279.833	78.2878
282.726	99.4785
285.619	116.403
288.512	105.921
291.404	59.1335
294.297	49.8098
297.19	94.051
300.082	73.1738
302.975	86.7124
305.868	60.124
308.76	35.0493
311.653	44.658
314.546	53.9321
317.438	37.5422
320.331	41.2422
323.224	41.1426
326.117	8.54175
329.009	52.176
331.902	27.2771
334.795	17.0488
337.687	56.3757
340.58	37.6299
343.473	1.75537
346.365	27.9585
349.258	30.574
352.151	12.4556
355.044	26.8506
357.936	24.1541
360.829	20.4641
363.722	20.3159
366.614	47.6411
369.507	41.8293
372.4	42.0166
375.293	35.5195
378.185	43.6245
381.078	37.1282
383.971	11.7371
386.863	40.8257
389.756	37.658
392.649	41.1951
395.541	43.8828
398.434	9.77832
401.327	33.3291
404.219	28.2129
407.112	6.76831
410.005	33.3494
412.898	45.3901
415.79	33.0681
418.683	30.3682
421.576	0.718262
424.469	4.67212
427.361	18.5354
430.254	2.10913
433.147	72.3408
436.039	12.9917
438.932	24.7515
441.825	49.5664
444.717	45.9006
447.61	34.1418
450.503	58.6016
453.396	27.1318
456.288	33.3186
459.181	20.1604
462.074	47.1843
464.966	51.2881
467.859	56.3457
470.752	57.5544
473.644	39.6475
476.537	44.7024
479.43	35.8384
482.322	19.4275
485.215	39.042
488.108	44.0532
491.001	21.3787
493.893	11.2871
496.786	45.189
499.679	30.5637
502.571	21.3459
505.464	34.915
508.357	49.5046
511.25	22.4688
514.142	10.6692
517.035	46.6707
519.928	22.137
522.82	53.4175
525.713	28.5393
528.606	23.0535
531.498	6.66211
534.391	45.6943
537.284	6.78369
540.177	6.91919
543.069	24.7559
545.962	21.8601
548.855	43.8657
551.747	55.7822
554.64	20.8355
557.533	51.9565
560.425	35.124
563.318	74.8616
566.211	16.9961
569.104	35.0649
571.996	71.7007
574.889	15.6838
577.782	52.3005
580.674	61.376
583.567	29.9304
586.46	56.7163
589.352	56.9976
592.245	49.1577
595.138	20.3567
598.031	19.7344
600.923	13.9949
603.816	37.4998
606.709	18.8618
609.601	85.9453
612.494	54.3005
615.387	37.8499
618.279	67.2139
621.172	91.6458
624.065	27.1304
626.958	36.8252
629.85	41.9522
632.743	15.6235
635.636	15.0239
638.528	22.2456
641.421	32.4036
644.314	21.3005
647.207	24.3477
650.099	52.2744
652.992	68.8906
655.885	39.8826
658.777	46.6389
661.67	38.0388
664.563	62.4465
667.455	38.2173
670.348	31.0088
673.241	19.499
676.134	55.6294
679.026	39.1348
681.919	67.9871
684.812	61.293
687.704	23.3271
690.597	45.1455
693.49	35.7124
696.382	52.593
699.275	32.6406
702.168	19.9814
705.061	24.9624
707.953	17.0442
710.846	17.5928
713.739	18.6357
716.631	49.4636
719.524	56.0564
722.417	61.2244
725.309	32.8232
728.202	57.3274
731.095	18.2266
733.987	32.8447
736.88	75.97
739.773	25.2383
742.666	31.9058
745.558	23.7129
748.451	16.074
751.344	23.6738
754.236	51.1387
757.129	32.4514
760.022	60.5483
762.915	13.5613
765.807	87.2703
768.7	42.206
771.593	33.7874
774.485	39.5122
777.378	48.208
780.271	6.67725
783.163	71.551
786.056	83.8455
788.949	55.1248
791.842	56.874
794.734	64.8411
797.627	54.4819
800.52	22.2959
803.412	41.658
806.305	77.1826
809.198	4.23804
812.091	17.7434
814.983	1.82422
817.876	32.8735
820.769	41.8835
823.661	33.6116
826.554	69.824
829.447	11.5488
832.339	31.5867
835.232	26.3613
838.125	20.8123
841.018	25.9487
843.91	37.0195
846.803	83.9299
849.696	37.772
852.588	53.9958
855.481	25.6777
858.374	22.3467
861.266	31.7544
864.159	53.0654
867.052	32.415
869.944	38.0745
872.837	41.0808
875.73	37.2927
878.623	43.708
881.515	43.2095
884.408	59.3418
887.301	49.9343
890.193	26.52
893.086	68.3298
895.979	26.4744
898.871	14.6733
901.764	41.5374
904.657	24.0166
907.55	43.6973
910.442	34.8774
913.335	27.3814
916.228	4.66943
919.12	21.7695
922.013	2.21265
924.906	13.3818
927.798	52.5515
930.691	62.2922
933.584	9.24097
936.477	55.7163
939.369	75.1592
942.262	25.4565
945.155	63.6431
948.047	43.4329
950.94	33.675
953.833	16.7815
956.726	46.7297
959.618	17.2832
962.511	1.95557
965.404	33.3303
968.296	32.5981
971.189	56.3901
974.082	21.752
976.974	4.60498
979.867	11.0449
982.76	3.3169
985.653	75.4663
988.545	52.2004
991.438	13.3733
994.331	43.5242
997.223	76.0354
1000.12	56.2522
1003.01	95.5894
1005.9	32.9873
1008.79	59.1614
1011.69	17.4624
1014.58	16.2971
1017.47	13.4395
1020.37	67.8826
1023.26	57.2664
1026.15	57.1619
1029.04	78.269
1031.94	55.9954
1034.83	3.72412
1037.72	64.5051
1040.61	34.7234
1043.51	69.3784
1046.4	51.4917
1049.29	43.3772
1052.18	16.021
1055.08	65.2942
1057.97	44.8738
1060.86	85.3267
1063.76	57.0772
1066.65	90.3018
1069.54	57.5708
1072.43	49.7769
1075.33	45.3945
1078.22	45.4482
1081.11	39.042
1084	57.6514
1086.9	51.8096
1089.79	17.7241
1092.68	71.6431
1095.58	85.3203
1098.47	64.4971
1101.36	41.8276
1104.25	73.604
1107.15	22.4936
1110.04	50.9238
1112.93	7.13525
1115.82	42.8169
1118.72	24.4062
1121.61	33.0171
1124.5	25.8745
1127.39	48.2549
1130.29	52.8227
1133.18	49.6167
1136.07	66.2852
1138.97	58.7685
1141.86	51.3926
1144.75	66.0093
1147.64	41.0151
1150.54	42.106
1153.43	63.3105
1156.32	26.3804
1159.21	46.4565
1162.11	20.3311
1165	21.8765
1167.89	59.7373
1170.79	40.5786
1173.68	105.96
1176.57	52.273
1179.46	42.4834
1182.36	59.081
1185.25	62.4834
1188.14	63.8032
1191.03	68.5352
1193.93	74.6646
1196.82	74.6343
1199.71	35.437
1202.61	50.6392
1205.5	54.6455
1208.39	72.6475
1211.28	34.4438
1214.18	50.5337
1217.07	2.97119
1219.96	64.4146
1222.85	26.6128
1225.75	53.1904
1228.64	40.1387
1231.53	64.0171
1234.42	86.0864
1237.32	62.2798
1240.21	25.4668
1243.1	43.4409
1246	26.2642
1248.89	23.2812
1251.78	61.9966
1254.67	49.1089
1257.57	37.6958
1260.46	35.686
1263.35	61.2471
1266.24	1.33398
1269.14	23.292
1272.03	35.7012
1274.92	61.2554
1277.82	53.085
1280.71	21.6548
1283.6	118.359
1286.49	56.5068
1289.39	77.3662
1292.28	41.2144
1295.17	33.9053
1298.06	44.9956
1300.96	71.6045
1303.85	62.6758
1306.74	0
