Measurement: Raman, 532 nm, unoriented, Raman Data Processed
Mineral: Aminoffite
Rruff sample: R100055
Ideal chemistry: Ca_3_(BeOH)_2_Si_3_O_10_
Locality: Langban, Filipstad, Varmland, Sweden
Source: William W Pinch
Description: Colorless transparent tetragonal pyramids with basal terminations, co-type sample from Harvard
Raman shift (cm-1)	intensity
174.863	0
177.755	3.82669
180.648	1.21014
183.541	4.14062
186.433	5.89325
189.326	5.85861
192.219	4.392
195.112	6.10736
198.004	4.67041
200.897	12.1724
203.79	21.3211
206.682	19.0111
209.575	7.65991
212.468	4.02777
215.36	7.55493
218.253	4.83569
221.146	6.90881
224.038	5.20569
226.931	2.78479
229.824	7.59778
232.717	5.19055
235.609	4.62537
238.502	3.32007
241.395	1.27808
244.287	1.51727
247.18	8.90515
250.073	4.08606
252.965	7.46716
255.858	10.1621
258.751	0.131287
261.644	7.41931
264.536	4.38715
267.429	2.35767
270.322	7.42859
273.214	1.35675
276.107	1.24799
279	3.71777
281.892	7.14319
284.785	2.51581
287.678	4.29211
290.571	2.94904
293.463	8.44031
296.356	5.0542
299.249	2.50732
302.141	10.5906
305.034	6.81897
307.927	6.81805
310.82	9.71063
313.712	20.0919
316.605	22.3875
319.498	32.4636
322.39	40.0194
325.283	57.9637
328.176	43.687
331.068	25.0078
333.961	16.8837
336.854	12.0337
339.747	6.97119
342.639	8.50543
345.532	11.4104
348.425	0.919983
351.317	0.063843
354.21	1.1955
357.103	3.98676
359.995	5.54175
362.888	9.23975
365.781	2.52838
368.673	2.92584
371.566	3.31897
374.459	2.53357
377.352	0.142334
380.244	4.28864
383.137	3.11084
386.03	8.93359
388.922	7.33795
391.815	2.81128
394.708	4.88147
397.601	8.31213
400.493	12.8683
403.386	7.6654
406.279	15.9611
409.171	25.78
412.064	20.6052
414.957	23.201
417.849	13.7244
420.742	15.4708
423.635	10.7877
426.527	7.65295
429.42	4.51843
432.313	8.34265
435.206	2.02795
438.098	10.6698
440.991	3.94958
443.884	3.58496
446.776	0.188354
449.669	7.42444
452.562	4.67651
455.454	9.55115
458.347	8.20996
461.24	17.0111
464.133	23.5841
467.025	31.2119
469.918	36.0377
472.811	28.8533
475.703	13.3251
478.596	13.8225
481.489	5.51282
484.382	13.4703
487.274	6.86975
490.167	2.47815
493.06	3.3363
495.952	1.42371
498.845	10.4351
501.738	0.658203
504.63	16.6096
507.523	1.90442
510.416	4.51367
513.308	2.29309
516.201	8.60767
519.094	3.20056
521.987	1.54602
524.879	7.198
527.772	14.6188
530.665	17.1747
533.557	20.4657
536.45	12.6482
539.343	9.20252
542.236	7.98377
545.128	3.80042
548.021	3.17114
550.914	11.4791
553.806	9.12219
556.699	4.22559
559.592	8.78992
562.484	8.89612
565.377	16.7798
568.27	19.7913
571.163	21.9347
574.055	17.4968
576.948	18.0894
579.841	0.239258
582.733	10.0588
585.626	5.12219
588.519	20.3394
591.411	20.0675
594.304	13.3283
597.197	10.1859
600.09	14.2566
602.982	5.10498
605.875	14.2622
608.768	18.7671
611.66	16.6148
614.553	12.2263
617.446	6.75171
620.338	4.06104
623.231	9.39453
626.124	6.99756
629.016	4.54468
631.909	7.77124
634.802	7.96484
637.695	5.20337
640.587	4.49634
643.48	2.396
646.373	4.28833
649.265	6.10303
652.158	17.1457
655.051	17.0339
657.943	1.31909
660.836	11.6457
663.729	6.51514
666.622	6.98706
669.514	3.93384
672.407	9.5022
675.3	14.4221
678.192	9.38672
681.085	6.98218
683.978	7.43311
686.87	6.40356
689.763	9.5647
692.656	10.1025
695.549	15.581
698.441	12.8242
701.334	16.8518
704.227	11.1116
707.119	7.45532
710.012	13.3377
712.905	16.8191
715.798	16.8025
718.69	3.29126
721.583	1.39282
724.476	11.1284
727.368	9.14062
730.261	18.3135
733.154	45.415
736.046	56.1282
738.939	86.6174
741.832	105.036
744.725	84.616
747.617	47.2683
750.51	34.667
753.403	16.1006
756.295	6.05933
759.188	5.0835
762.081	3.54517
764.973	3.08594
767.866	6.00903
770.759	4.72119
773.652	2.24048
776.544	11.1626
779.437	3.11133
782.33	6.06494
785.222	2.0686
788.115	5.12842
791.008	22.6016
793.9	31.8491
796.793	12.1277
799.686	0.36377
802.578	12.1699
805.471	6.51465
808.364	19.1931
811.257	3.90381
814.149	28.4092
817.042	22.2642
819.935	26.3269
822.827	26.2105
825.72	24.8137
828.613	16.7236
831.505	21.1807
834.398	19.1016
837.291	8.2793
840.184	3.0581
843.076	6.2334
845.969	19.4663
848.862	24.5889
851.754	13.2666
854.647	9.94336
857.54	24.2798
860.433	11.7642
863.325	14.7212
866.218	11.5151
869.111	11.6279
872.003	13.3047
874.896	18.7036
877.789	21.3149
880.681	26.7754
883.574	0.208496
886.467	8.75342
889.36	21.4141
892.252	18.3101
895.145	31.1064
898.038	12.0229
900.93	22.3135
903.823	18.4521
906.716	14.311
909.608	18.1113
912.501	14.3608
915.394	15.0454
918.287	38.5161
921.179	29.8823
924.072	34.2568
926.965	38.0054
929.857	29.6113
932.75	0.257813
935.643	5.2041
938.535	8.07812
941.428	1.62061
944.321	1.16553
947.213	17.8486
950.106	16.9653
952.999	19.0483
955.892	21.4614
958.784	23.8579
961.677	14.0474
964.57	2.51709
967.462	9.21338
970.355	10.1465
973.248	18.2261
976.14	39.5171
979.033	57.0659
981.926	75.2749
984.819	64.9141
987.711	66.771
990.604	72.0225
993.497	37.2549
996.389	20.7671
999.282	10.4497
1002.17	35.5059
1005.07	38.2334
1007.96	48.666
1010.85	49.0127
1013.75	37.5986
1016.64	56.0747
1019.53	49.0918
1022.42	44.2373
1025.32	22.8496
1028.21	36.3511
1031.1	39.3804
1033.99	31.0947
1036.89	46.2261
1039.78	10.1812
1042.67	2.91846
1045.57	10.3154
1048.46	1.75928
1051.35	26.623
1054.24	15.6523
1057.14	30.5786
1060.03	6.15332
1062.92	4.62549
1065.81	9.07617
1068.71	7.86719
1071.6	13.9194
1074.49	4.26367
1077.38	40.5874
1080.28	32.5142
1083.17	17.7314
1086.06	15.4023
1088.96	21.7148
1091.85	22.7021
1094.74	40.4404
1097.63	25.6816
1100.53	21.3564
1103.42	15.5625
1106.31	40.5908
1109.2	39.8662
1112.1	47.2041
1114.99	18.8945
1117.88	40.0713
1120.78	56.918
1123.67	34.9717
1126.56	9.95898
1129.45	15.9619
1132.35	17.71
1135.24	22.4619
1138.13	21.6113
1141.02	28.0811
1143.92	24.2764
1146.81	25.1514
1149.7	30.4971
1152.6	19.7441
1155.49	40.8516
1158.38	29.8945
1161.27	14.792
1164.17	15.3145
1167.06	38.8555
1169.95	32.9541
1172.84	45.2549
1175.74	20.79
1178.63	7.45898
1181.52	18.2686
1184.41	23.6523
1187.31	22.5273
1190.2	1.47656
1193.09	10.2236
1195.99	32.6035
1198.88	35.8652
1201.77	43.6826
1204.66	21.5176
1207.56	39.4502
1210.45	31.7197
1213.34	55.6914
1216.23	47.2158
1219.13	9.87305
1222.02	6.85547
1224.91	22.7627
1227.81	34.7744
1230.7	30.9014
1233.59	37.1494
1236.48	4.71777
1239.38	20.2441
1242.27	0.408203
1245.16	13.6738
1248.05	39.542
1250.95	52.8477
1253.84	63.4893
1256.73	32.499
1259.62	52.4795
1262.52	60.7168
1265.41	45.8369
1268.3	64.6309
1271.2	56.8545
1274.09	35.876
1276.98	0.964844
1279.87	33.6572
1282.77	13.5742
1285.66	3.36523
1288.55	0.773438
1291.44	13.7031
1294.34	31.8096
1297.23	28.9258
1300.12	61.4443
1303.02	0
