Measurement: Raman, 532 nm, unoriented, Raman Data Processed
Mineral: Ammonioalunite
Rruff sample: R060873
Ideal chemistry: N^3-^H_4_Al_3_(S^6+^O_4_)_2_(OH)_6_
Locality: Sch√∂ller mine, Kladno, Central Bohemia Region, Bohemia, Czech Republic
Source: Michael Scott
Description: Tan colored fine-grained consolidated fragments
Raman shift (cm-1)	intensity
161.538	0
164.431	250.609
167.324	173.203
170.217	90.9531
173.109	73.4922
176.002	449.703
178.895	471.062
181.787	819.477
184.68	1072.38
187.573	1207.59
190.465	1112.57
193.358	936.086
196.251	770.867
199.143	611.047
202.036	836.828
204.929	1123.44
207.822	1404.55
210.714	1177.59
213.607	952.055
216.5	1054.2
219.392	1551.71
222.285	1409.15
225.178	1285.33
228.07	1440.38
230.963	1716.04
233.856	1479.31
236.749	1185.18
239.641	974.539
242.534	1215.58
245.427	1498.19
248.319	1528.56
251.212	1142.19
254.105	632.922
256.997	628.758
259.89	832.492
262.783	1429.31
265.676	1382.84
268.568	889.977
271.461	643.805
274.354	567.383
277.246	740.336
280.139	991.836
283.032	1010.42
285.924	967.062
288.817	640.656
291.71	519.094
294.603	389.078
297.495	32.5938
300.388	72.5
303.281	468.375
306.173	1464.87
309.066	932.055
311.959	509.812
314.851	303.891
317.744	39.0547
320.637	198.734
323.53	213.273
326.422	579.625
329.315	659.898
332.208	421.867
335.1	377.516
337.993	373.539
340.886	277.047
343.778	133.648
346.671	106.93
349.564	462.797
352.457	549.992
355.349	581.562
358.242	54.8672
361.135	181.609
364.027	123.711
366.92	134.43
369.813	0.46875
372.705	160.828
375.598	374.531
378.491	188.195
381.384	6.73438
384.276	165.398
387.169	579.969
390.062	665.922
392.954	595.828
395.847	215.5
398.74	175.867
401.632	198.719
404.525	180.578
407.418	103.688
410.31	325.359
413.203	607.93
416.096	781.453
418.989	858.234
421.881	433.508
424.774	482.938
427.667	289.625
430.559	377.398
433.452	557.969
436.345	613.875
439.237	536.375
442.13	553.586
445.023	694.641
447.916	574.977
450.808	561.711
453.701	488.961
456.594	374.93
459.486	429.656
462.379	67.0391
465.272	507.32
468.164	542.602
471.057	602.922
473.95	480.305
476.843	425.898
479.735	224.266
482.628	455.898
485.521	1229.47
488.413	833.617
491.306	185.359
494.199	25.7578
497.091	32.1328
499.984	96.1719
502.877	30.5781
505.77	19.6406
508.662	155.547
511.555	353.156
514.448	478.289
517.34	997.773
520.233	940.727
523.126	1206.37
526.018	1162.17
528.911	920.359
531.804	323.938
534.696	297.125
537.589	103.734
540.482	244.211
543.375	639.906
546.267	780.078
549.16	618.516
552.053	388.938
554.945	357.422
557.838	183.766
560.731	215.688
563.623	390.516
566.516	617.328
569.409	644.109
572.302	536.734
575.194	271.125
578.087	123.75
580.98	118.062
583.872	480.141
586.765	439.547
589.658	609.641
592.55	318.375
595.443	259.094
598.336	182.859
601.229	113.594
604.121	369.266
607.014	776.797
609.907	738.484
612.799	841.203
615.692	706.594
618.585	1053.09
621.477	880.438
624.37	883.516
627.263	950.031
630.156	707.812
633.048	52.4688
635.941	190.766
638.834	226.578
641.726	263.297
644.619	429.953
647.512	359.641
650.404	1240.88
653.297	1461.52
656.19	707.984
659.083	884.047
661.975	494.141
664.868	208.312
667.761	570.453
670.653	829.828
673.546	487.484
676.439	123.359
679.331	65.7812
682.224	401.547
685.117	482.812
688.01	771.828
690.902	859.297
693.795	896.422
696.688	1114.28
699.58	514.656
702.473	43.8125
705.366	192.141
708.258	447.234
711.151	183.656
714.044	368.469
716.937	443.781
719.829	864.234
722.722	777.078
725.615	1016.19
728.507	770.969
731.4	526.5
734.293	844.547
737.185	730.078
740.078	357.734
742.971	841.125
745.864	1589.11
748.756	1609.59
751.649	828.453
754.542	501.016
757.434	742.062
760.327	197.359
763.22	397.875
766.112	374.406
769.005	1037.86
771.898	1132.64
774.791	541.562
777.683	531.016
780.576	841.656
783.469	777.766
786.361	617.969
789.254	582.234
792.147	839.859
795.039	1404.77
797.932	968.016
800.825	870.484
803.718	532.734
806.61	613.094
809.503	720.266
812.396	405.812
815.288	451.703
818.181	738.547
821.074	107.688
823.966	20.3906
826.859	473.094
829.752	849.156
832.644	505.297
835.537	207.688
838.43	256.359
841.323	610.031
844.215	514.578
847.108	730.578
850.001	565.672
852.893	80.7188
855.786	298.328
858.679	196.406
861.571	875.188
864.464	861.844
867.357	327.094
870.25	25.4688
873.142	168.766
876.035	322.859
878.928	393.578
881.82	617.047
884.713	632.812
887.606	1195.67
890.498	1220.45
893.391	2004.2
896.284	2304.06
899.177	1867.28
902.069	595.031
904.962	522.453
907.855	622.766
910.747	261.766
913.64	199.547
916.533	195.047
919.425	377.766
922.318	878.188
925.211	1518.69
928.104	1569.89
930.996	1451.53
933.889	1059.14
936.782	1025.5
939.674	622.484
942.567	849.688
945.46	183.562
948.352	129.797
951.245	115
954.138	269.312
957.031	451.516
959.923	425.938
962.816	278.484
965.709	633.547
968.601	189.344
971.494	71.5
974.387	99.6406
977.279	900.844
980.172	613.391
983.065	442.859
985.958	170.328
988.85	58.2031
991.743	28.2656
994.636	19.5
997.528	588.312
1000.42	847.734
1003.31	894.812
1006.21	665
1009.1	554
1011.99	677.297
1014.88	956.094
1017.78	996.859
1020.67	1298.59
1023.56	1766.84
1026.45	1991.3
1029.35	1512.75
1032.24	1128.06
1035.13	810.594
1038.03	1508.09
1040.92	1533.16
1043.81	800.016
1046.7	294.234
1049.6	258.5
1052.49	1109.91
1055.38	1512.66
1058.28	1704.92
1061.17	1037.47
1064.06	150
1066.95	366.953
1069.85	255.125
1072.74	699.766
1075.63	407.75
1078.52	20.9062
1081.42	261.766
1084.31	396.969
1087.2	1151.3
1090.1	561.969
1092.99	628.875
1095.88	1271.73
1098.77	1896.19
1101.67	1401.45
1104.56	1184.22
1107.45	1398.41
1110.34	680.453
1113.24	494.328
1116.13	542.281
1119.02	591.219
1121.91	45.0938
1124.81	121.828
1127.7	1255.12
1130.59	1970.02
1133.48	1835.7
1136.38	1323.41
1139.27	1194.44
1142.16	1100.12
1145.06	311.094
1147.95	7.98438
1150.84	469.781
1153.73	1345.12
1156.63	1515.34
1159.52	927.547
1162.41	759.812
1165.31	187.859
1168.2	416.938
1171.09	309.484
1173.98	882.141
1176.88	1333.59
1179.77	1536.12
1182.66	1639.83
1185.55	2238.28
1188.45	1346.95
1191.34	793.641
1194.23	479.078
1197.12	535.719
1200.02	606.484
1202.91	716.125
1205.8	93.5938
1208.69	724.328
1211.59	1013.83
1214.48	1295.81
1217.37	1040.81
1220.27	509.578
1223.16	652.641
1226.05	946.531
1228.94	1174.88
1231.84	1200.23
1234.73	1406.94
1237.62	1901.69
1240.52	1540.97
1243.41	1434.17
1246.3	1643.72
1249.19	1439.05
1252.09	1310.92
1254.98	965.375
1257.87	1211.58
1260.76	1321.95
1263.66	121.625
1266.55	262.75
1269.44	1222.39
1272.34	2415.45
1275.23	2498.88
1278.12	1754.92
1281.01	1160.92
1283.91	927.844
1286.8	1421.23
1289.69	856.859
1292.58	535.391
1295.48	192.328
