Measurement: Raman, 785 nm, unoriented, Raman Data Processed
Mineral: Ammonioalunite
Rruff sample: R060873
Ideal chemistry: N^3-^H_4_Al_3_(S^6+^O_4_)_2_(OH)_6_
Locality: Sch√∂ller mine, Kladno, Central Bohemia Region, Bohemia, Czech Republic
Source: Michael Scott
Description: Tan colored fine-grained consolidated fragments
Raman shift (cm-1)	intensity
155.758	0
158.651	1471.53
161.543	5010.12
164.436	9030.57
167.329	11554.2
170.221	12489.5
173.114	11952.3
176.007	11397.3
178.9	11550.9
181.792	12177
184.685	12585.7
187.578	13530.9
190.47	13710.9
193.363	14091.7
196.256	14527.9
199.148	14689.2
202.041	14690.5
204.934	14612.3
207.827	14154.9
210.719	14214.4
213.612	14512
216.505	14636.6
219.397	14849.6
222.29	14488.6
225.183	14519.6
228.076	14566.2
230.968	14654.9
233.861	14681.5
236.754	14897.1
239.646	14526
242.539	14490.4
245.432	14169.9
248.324	13755.9
251.217	13615.3
254.11	13610.2
257.003	13809.7
259.895	13807.9
262.788	13504.2
265.681	13313.4
268.573	12976
271.466	12487
274.359	12389.8
277.251	12679.7
280.144	13359.3
283.037	13748.9
285.93	13443.4
288.822	12695.1
291.715	11775.6
294.608	11378.2
297.5	11158.8
300.393	11668.3
303.286	11843.1
306.178	11991.8
309.071	11396.2
311.964	10614.7
314.857	10111.4
317.749	9690.58
320.642	9721.29
323.535	10161.5
326.427	10325.6
329.32	10156.8
332.213	9952.25
335.105	9255.16
337.998	8668.19
340.891	8328.24
343.784	8400.54
346.676	8509.24
349.569	9030.46
352.462	8765.78
355.354	8518.23
358.247	7581.84
361.14	7115.7
364.032	7065.88
366.925	7349.61
369.818	7314.85
372.711	7583.12
375.603	7345.84
378.496	6875.56
381.389	6403.69
384.281	6114.88
387.174	5845.17
390.067	5954.56
392.959	6344.81
395.852	6367.91
398.745	6425.56
401.638	5635.48
404.53	5494.92
407.423	4942.1
410.316	5054.11
413.208	4890
416.101	5436.41
418.994	5395.81
421.886	5133.52
424.779	4819.28
427.672	4671.98
430.565	4335.92
433.457	4256.94
436.35	3931.42
439.243	4273.81
442.135	3988.8
445.028	4092.86
447.921	4112.98
450.813	3660.2
453.706	3317.66
456.599	3008.78
459.492	3268.67
462.384	3365.48
465.277	3429.12
468.17	3201.77
471.062	3125.23
473.955	2752.2
476.848	2644.48
479.741	2539.96
482.633	2342.96
485.526	2523.72
488.419	2681.55
491.311	3008.19
494.204	2724.81
497.097	2517.7
499.989	1976.6
502.882	2057.86
505.775	2132.41
508.668	2176.89
511.56	2104.95
514.453	2029.41
517.346	1991.14
520.238	2159.82
523.131	2204.91
526.024	2036.84
528.916	1930.02
531.809	1720.97
534.702	1635.98
537.594	1949.41
540.487	1801.41
543.38	1624.02
546.273	1607.09
549.165	1469.83
552.058	1299.64
554.951	1484.9
557.843	1459.31
560.736	1526.16
563.629	1290.94
566.521	1219.17
569.414	1012.52
572.307	864.719
575.2	864.469
578.092	873.578
580.985	1022.48
583.878	977.078
586.77	960.633
589.663	812.281
592.556	811.781
595.448	1000.05
598.341	628.695
601.234	753.633
604.127	796.539
607.019	722.047
609.912	619.469
612.805	602.883
615.697	560.711
618.59	464.836
621.483	597.742
624.375	600.367
627.268	508.148
630.161	440.797
633.054	413.461
635.946	490.695
638.839	468.117
641.732	614.375
644.624	524.672
647.517	540.133
650.41	325.586
653.302	466.867
656.195	491.867
659.088	583.102
661.981	379.898
664.873	385.586
667.766	347.906
670.659	276.547
673.551	537.336
676.444	359.094
679.337	362.828
682.229	303.352
685.122	234.406
688.015	252.5
690.908	214.051
693.8	196.73
696.693	560.121
699.586	457.227
702.478	164.402
705.371	418.836
708.264	79.059
711.156	235.98
714.049	180.426
716.942	335.941
719.835	310.84
722.727	396.176
725.62	242.523
728.513	34.586
731.405	168.191
734.298	58.121
737.191	0.266
740.083	103.266
742.976	73.988
745.869	87.469
748.762	255.375
751.654	21.258
754.547	53.602
757.44	69.656
760.332	133.648
763.225	76.266
766.118	126.875
769.01	49.934
771.903	24.715
774.796	150.566
777.689	87.387
780.581	94.992
783.474	179.738
786.367	89.883
789.259	137.301
792.152	108.664
795.045	100.668
797.938	218.707
800.83	214.488
803.723	25.656
806.616	179.844
809.508	110.203
812.401	82
815.294	30.309
818.186	9.52
821.079	137.688
823.972	22.129
826.865	41.77
829.757	21.172
832.65	8.676
835.543	50.051
838.435	24.066
841.328	91.633
844.221	42.297
847.114	115.5
850.006	6.625
852.899	82.32
855.792	8.996
858.684	55.23
861.577	212.363
864.47	34.738
867.362	134.629
870.255	189.27
873.148	262.629
876.041	97.117
878.933	99.734
881.826	44.129
884.719	99.379
887.611	79.254
890.504	112.184
893.397	167.949
896.289	79.023
899.182	13.895
902.075	122.012
904.968	28.211
907.86	62
910.753	114.188
913.646	34.871
916.538	125.121
919.431	71.867
922.324	51.434
925.216	167.438
928.109	25.77
931.002	63.43
933.894	57.332
936.787	2.996
939.68	82.867
942.573	180.992
945.465	64.363
948.358	174.109
951.251	60.461
954.143	76.094
957.036	101.086
959.929	46.512
962.821	69.824
965.714	93.613
968.607	116.848
971.5	13.52
974.392	50.004
977.285	96.082
980.178	77.84
983.07	53.461
985.963	179.238
988.856	195.195
991.748	145.457
994.641	208.594
997.534	166.031
1000.43	100.668
1003.32	66.309
1006.21	65.023
1009.11	84.078
1012	34.215
1014.89	185.477
1017.78	311.285
1020.67	275.035
1023.57	148.863
1026.46	112.793
1029.35	196.84
1032.25	53.094
1035.14	35.922
1038.03	8.859
1040.92	52.605
1043.82	124.477
1046.71	11.523
1049.6	151.559
1052.49	145.43
1055.39	74.797
1058.28	116.832
1061.17	187.891
1064.07	130.645
1066.96	239.367
1069.85	118.719
1072.74	34.617
1075.64	40.625
1078.53	4.824
1081.42	40.219
1084.32	125.977
1087.21	195.914
1090.1	16.719
1092.99	59.777
1095.89	1.762
1098.78	12.52
1101.67	147.324
1104.56	195.75
1107.46	315.008
1110.35	217.34
1113.24	6.988
1116.13	81.785
1119.03	261.082
1121.92	195.133
1124.81	286.051
1127.7	183.027
1130.6	303.52
1133.49	452.113
1136.38	319.625
1139.28	354.777
1142.17	279.82
1145.06	405.66
1147.95	347.039
1150.85	350.172
1153.74	303.93
1156.63	507.332
1159.53	248.781
1162.42	238.898
1165.31	103.855
1168.2	190.797
1171.1	39.52
1173.99	74.621
1176.88	156.27
1179.77	332.914
1182.67	387.727
1185.56	578.797
1188.45	814.191
1191.35	1255.85
1194.24	1483.34
1197.13	2062.05
1200.02	2618.45
1202.92	3160.69
1205.81	3790.28
1208.7	4355.44
1211.59	4945.78
1214.49	6038.75
1217.38	6580.75
1220.27	7171
1223.16	7430.63
1226.06	7431.41
1228.95	7165.75
1231.84	6706.96
1234.73	5808.72
1237.63	5005.23
1240.52	4483.35
1243.41	3570.23
1246.31	2829.82
1249.2	2379.01
1252.09	1635.8
1254.98	1246.54
1257.88	1004.18
1260.77	648.547
1263.66	324.52
1266.56	246.328
1269.45	13.574
