Measurement: Raman, 532 nm, unoriented, Raman Data Processed
Mineral: Andalusite
Rruff sample: R050258
Ideal chemistry: Al_2_SiO_5_
Locality: Bautista Canyon, near Hemet, Riverside County, California, USA
Source: Marcus Origlieri
Description: Brown fragment
Measured chemistry: Al_2.00_Si_1.00_O_5_
Raman shift (cm-1)	intensity
149.913	0
152.806	264.394
155.699	58.3086
158.591	42.6484
161.484	74.4062
164.377	27.1445
167.269	415.566
170.162	299.957
173.055	427.926
175.947	310.918
178.84	384.312
181.733	218.984
184.626	423.117
187.518	167.098
190.411	18.2461
193.304	149.512
196.196	50.25
199.089	84.9531
201.982	113.723
204.875	113.519
207.767	101.047
210.66	9.3125
213.553	109.746
216.445	280.625
219.338	188.309
222.231	34.2656
225.123	64.6055
228.016	11.8477
230.909	8.27344
233.802	213.309
236.694	19.0234
239.587	121.125
242.48	200.242
245.372	193.832
248.265	291.957
251.158	315.227
254.05	306.383
256.943	306.324
259.836	262.477
262.728	467.078
265.621	320.711
268.514	311.715
271.407	359.16
274.299	466.926
277.192	715.875
280.085	678.91
282.977	680.094
285.87	588.336
288.763	878.215
291.656	981.344
294.548	1023.38
297.441	547.914
300.334	312.492
303.226	433.582
306.119	339.832
309.012	527.898
311.904	424.258
314.797	365.293
317.69	487.094
320.582	635.336
323.475	589.68
326.368	444.269
329.261	244.535
332.153	215.836
335.046	255.082
337.939	278.062
340.831	144.273
343.724	79.293
346.617	62.7344
349.509	168.938
352.402	303.414
355.295	192.406
358.188	513.082
361.08	240.68
363.973	96.0898
366.866	214.719
369.758	302.148
372.651	212.742
375.544	34.875
378.436	58.5508
381.329	121.098
384.222	219.523
387.115	150.016
390.007	134.93
392.9	129.547
395.793	132.246
398.685	7.71484
401.578	247.695
404.471	218.684
407.363	273.387
410.256	109.293
413.149	240.731
416.041	156.856
418.934	409.289
421.827	202.559
424.72	171.152
427.612	123.555
430.505	235.848
433.398	139.219
436.29	176.945
439.183	6.19531
442.076	84.4531
444.969	81.0547
447.861	13.1211
450.754	260.066
453.647	347.719
456.539	189.648
459.432	158.664
462.325	151.644
465.217	80.7188
468.11	88.0117
471.003	29.082
473.896	120.254
476.788	178.481
479.681	250.074
482.574	189.738
485.466	199.582
488.359	52.707
491.252	234.648
494.144	19.8633
497.037	269.617
499.93	139.727
502.822	9.3125
505.715	87.9336
508.608	19.457
511.501	38.1836
514.393	154.867
517.286	86.8281
520.179	203.406
523.071	247.965
525.964	102.992
528.857	275.965
531.75	106.606
534.642	154.023
537.535	334.434
540.428	120.809
543.32	292.559
546.213	230.43
549.106	395.156
551.998	293.668
554.891	315.789
557.784	229.594
560.677	400.293
563.569	123.344
566.462	96.5469
569.355	121.215
572.247	66.9336
575.14	2.17188
578.033	52.6953
580.925	66.3984
583.818	266.863
586.711	233.688
589.604	289.977
592.496	249.852
595.389	239.973
598.282	336.941
601.174	376.957
604.067	164.777
606.96	330.18
609.852	376.16
612.745	274.414
615.638	299.336
618.53	263.598
621.423	310.336
624.316	181.723
627.209	133.887
630.101	110.688
632.994	362.527
635.887	254.188
638.779	224.93
641.672	54.1562
644.565	60.1484
647.457	61.5938
650.35	22.832
653.243	32.2148
656.136	80.4727
659.028	247.594
661.921	500.852
664.814	427.309
667.706	120.082
670.599	130.062
673.492	293.875
676.385	334.094
679.277	184.754
682.17	278.809
685.063	217.953
687.955	55.3789
690.848	272.5
693.741	40.5781
696.633	98.2891
699.526	178.398
702.419	265.445
705.312	178.289
708.204	98.9414
711.097	242.758
713.99	118.305
716.882	101.793
719.775	2.95703
722.668	196.418
725.56	277.625
728.453	328.719
731.346	201.965
734.239	15.5781
737.131	192.109
740.024	114.742
742.917	198.211
745.809	70.3477
748.702	116.031
751.595	254.531
754.487	88.5977
757.38	46.2812
760.273	85.0664
763.165	102.523
766.058	257.731
768.951	268.156
771.844	294.801
774.736	200.086
777.629	108.512
780.522	130.707
783.414	145.012
786.307	7.14062
789.2	209.43
792.092	242.719
794.985	203.266
797.878	49.1328
800.77	140.34
803.663	236.742
806.556	270.668
809.449	345.781
812.341	55.9141
815.234	238.262
818.127	258.875
821.019	175.219
823.912	379.883
826.805	288.652
829.697	105.266
832.59	76.8633
835.483	61.1328
838.376	141.695
841.268	187.016
844.161	205.098
847.054	41.0547
849.946	10.832
852.839	62.2969
855.732	136.664
858.625	119.184
861.517	30.5273
864.41	4.35156
867.303	170.309
870.195	140.797
873.088	142.539
875.981	120.695
878.873	325.941
881.766	185.34
884.659	14.2305
887.552	300.648
890.444	187.527
893.337	196.16
896.23	20.3086
899.122	71.1133
902.015	130.621
904.908	264.242
907.8	332.867
910.693	302.859
913.586	335.969
916.479	711.164
919.371	1048.21
922.264	786.082
925.157	530.231
928.049	594.09
930.942	536.848
933.835	413.547
936.727	376.086
939.62	21.8711
942.513	85.4375
945.405	7.38281
948.298	157.414
951.191	37.6836
954.084	104.879
956.976	183.316
959.869	135.816
962.762	124.5
965.654	51.4414
968.547	206.949
971.44	192.562
974.332	26.6211
977.225	34.4453
980.118	275.797
983.011	281.894
985.903	267.996
988.796	314.152
991.689	161.828
994.581	128.066
997.474	1.07812
1000.37	172.125
1003.26	150.945
1006.15	5.34766
1009.04	44.5469
1011.94	179.848
1014.83	354.332
1017.72	354.91
1020.62	119.551
1023.51	225.82
1026.4	212.223
1029.29	108.438
1032.19	182.699
1035.08	74.0938
1037.97	306.457
1040.87	29.375
1043.76	96.8945
1046.65	189.231
1049.54	188.215
1052.43	259.363
1055.33	245.332
1058.22	339.5
1061.11	344.391
1064.01	264.879
1066.9	369.652
1069.79	201.68
1072.68	145.398
1075.58	250.492
1078.47	90.1797
1081.36	167.418
1084.26	228.109
1087.15	237.051
1090.04	43.3672
1092.93	156.359
1095.83	270.535
1098.72	278.898
1101.61	306.555
1104.5	237.43
1107.4	222.629
1110.29	134.852
1113.18	327.082
1116.08	250.777
1118.97	25.8477
1121.86	132.109
1124.75	17.5781
1127.65	4.81641
1130.54	161.008
1133.43	234.133
1136.32	366.144
1139.22	221.191
1142.11	267.856
1145	266.07
1147.89	280.316
1150.79	64.6758
1153.68	142.625
1156.57	31.0625
1159.46	86.5273
1162.36	9.46875
1165.25	284.777
1168.14	453.535
1171.04	287.781
1173.93	318.16
1176.82	372.211
1179.71	256.262
1182.61	261.156
1185.5	120.391
1188.39	145.57
1191.29	264.832
1194.18	280.356
1197.07	119.434
1199.96	297.961
1202.86	142.188
1205.75	17.3672
1208.64	227.301
1211.53	174.891
1214.43	209.367
1217.32	291.75
1220.21	117.059
1223.11	176.684
1226	221.359
1228.89	146.098
1231.78	101.66
1234.67	354.617
1237.57	12.4023
1240.46	7.34766
1243.35	34.1641
1246.25	187.902
1249.14	344.41
1252.03	329.66
1254.92	238.926
1257.82	297.762
1260.71	293.422
1263.6	169.144
1266.49	266.984
1269.39	208.102
1272.28	74.5273
1275.17	15.5039
1278.07	122.559
