Measurement: Raman, 532 nm, unoriented, Raman Data Processed
Mineral: Anilite
Rruff sample: R060688
Ideal chemistry: Cu_7_S_4_
Locality: Horai Halze bei Medenec, Erzgebirge, Czech Republic
Source: Michael Scott
Description: Black metallic massive; associated with malachite
Measured chemistry: Cu_6.96_S_4.00
Raman shift (cm-1)	intensity
136.469	0
139.843	48.691
143.218	38.885
146.593	50.933
149.968	39.048
153.343	59.506
156.717	75.595
160.092	42.374
163.467	62.735
166.842	42.249
170.217	49.415
173.592	30.931
176.966	35.147
180.341	51.839
183.716	46.006
187.091	48.477
190.466	92.529
193.84	65.818
197.215	95.659
200.59	66.429
203.965	84.757
207.34	115.917
210.714	65.86
214.089	46.69
217.464	57.517
220.839	56.363
224.214	39.776
227.589	70.462
230.963	32.917
234.338	46.285
237.713	64.627
241.088	50.021
244.463	60.507
247.837	52.787
251.212	40.182
254.587	55.64
257.962	48.239
261.337	47.759
264.711	56.068
268.086	48.717
271.461	80.129
274.836	40.777
278.211	40.926
281.586	47.341
284.96	94.866
288.335	64.644
291.71	63.712
295.085	94.723
298.46	56.281
301.835	61.172
305.209	68.182
308.584	59.174
311.959	64.501
315.334	54.559
318.709	63.227
322.083	43.752
325.458	37.79
328.833	39.013
332.208	59.18
335.583	101.26
338.957	67.241
342.332	27.518
345.707	40.534
349.082	40.016
352.457	5.419
355.832	11.1
359.206	12.601
362.581	14.681
365.956	21.35
369.331	18.979
372.706	20.613
376.08	7.196
379.455	11.818
382.83	29.813
386.205	8.182
389.58	10.414
392.954	6.621
396.329	3.615
399.704	12.349
403.079	16.613
406.454	11.286
409.828	32.563
413.203	1.816
416.578	28.506
419.953	22.037
423.328	4.507
426.703	14.833
430.077	8.011
433.452	12.521
436.827	10.785
440.202	25.811
443.577	17.757
446.952	20.821
450.326	33.752
453.701	56.678
457.076	59.11
460.451	107.505
463.826	167.594
467.2	181.609
470.575	249.668
473.95	214.354
477.325	91.537
480.7	61.519
484.074	52.786
487.449	44.964
490.824	19.114
494.199	18.354
497.574	23.853
500.948	16.33
504.323	3.248
507.698	25.345
511.073	39.589
514.448	4.114
517.823	28.856
521.197	26.577
524.572	7.448
527.947	17.463
531.322	15.536
534.697	36.712
538.071	12.489
541.446	13.199
544.821	36.21
548.196	35.155
551.571	30.142
554.945	14.542
558.32	3.629
561.695	31.408
565.07	60.776
568.445	22.417
571.82	32.448
575.194	4.031
578.569	31.882
581.944	56.219
585.319	34.541
588.694	12.262
592.068	31.509
595.443	28.648
598.818	28.676
602.193	13.959
605.568	44.524
608.943	31.621
612.317	28.026
615.692	15.282
619.067	22.561
622.442	31.008
625.817	48.71
629.191	67.983
632.566	75.025
635.941	28.297
639.316	8.144
642.691	21.891
646.065	24.934
649.44	15.317
652.815	64.117
656.19	52.596
659.565	35.87
662.94	45.106
666.314	37.687
669.689	39.25
673.064	20.432
676.439	7.987
679.814	16.289
683.188	11.455
686.563	81.374
689.938	17.618
693.313	28.628
696.688	24.69
700.062	37.741
703.437	15.837
706.812	71.88
710.187	28.016
713.562	39.465
716.937	21.735
720.311	14.447
723.686	32.954
727.061	39.042
730.436	18.36
733.811	14.123
737.185	33.317
740.56	25.027
743.935	14.183
747.31	32.912
750.685	33.933
754.06	49.003
757.434	32.091
760.809	36.336
764.184	18.729
767.559	29.665
770.934	34.56
774.308	15.597
777.683	41.354
781.058	27.297
784.433	43.209
787.808	29.331
791.182	17.563
794.557	36.489
797.932	28.487
801.307	32.072
804.682	31.671
808.057	39.517
811.431	25.826
814.806	18.039
818.181	11.165
821.556	5.45
824.931	8.13
828.305	4.524
831.68	24.508
835.055	6.501
838.43	38.387
841.805	24.37
845.18	50.83
848.554	31.529
851.929	19.704
855.304	34.551
858.679	9.618
862.054	5.428
865.428	26.636
868.803	61.653
872.178	33.381
875.553	5.566
878.928	48.201
882.302	15.66
885.677	42.765
889.052	27.594
892.427	50.078
895.802	50.695
899.177	48.207
902.551	53.542
905.926	31.586
909.301	25.301
912.676	44.407
916.051	33.428
919.425	37.326
922.8	5.554
926.175	64.92
929.55	31.391
932.925	39.077
936.299	26.545
939.674	35.529
943.049	3.202
946.424	18.04
949.799	35.062
953.174	49.037
956.548	14.141
959.923	23.611
963.298	12.321
966.673	24.461
970.048	8.265
973.422	29.104
976.797	30.245
980.172	13.99
983.547	51.901
986.922	77.229
990.296	43.958
993.671	32.768
997.046	22.01
1000.42	36.645
1003.8	38.742
1007.17	6.784
1010.54	30.849
1013.92	39.156
1017.29	24.3
1020.67	1.562
1024.05	64.82
1027.42	54.867
1030.79	34.507
1034.17	30.623
1037.54	60.656
1040.92	34.456
1044.29	12.551
1047.67	11.646
1051.04	31.381
1054.42	50.582
1057.79	60.804
1061.17	46.626
1064.54	7.882
1067.92	43.572
1071.29	8.55
1074.67	2.303
1078.04	56.056
1081.42	26.303
1084.79	49.919
1088.17	40.843
1091.54	48.031
1094.92	44.304
1098.29	13.273
1101.66	45.405
1105.04	38.024
1108.41	11.48
1111.79	0.013
1115.16	12.811
1118.54	23.2
1121.91	32.12
1125.29	2.665
1128.66	32.234
1132.04	1.643
1135.41	13.604
1138.79	51.654
1142.16	29.899
1145.54	10.172
1148.91	0.352
1152.29	17.099
1155.66	26.075
1159.04	54.61
1162.41	9.645
1165.79	4.418
1169.16	33.037
1172.54	0.715
1175.91	42.085
1179.29	9.58
1182.66	47.102
1186.04	16.829
1189.41	52.219
1192.79	24.961
1196.16	19.797
1199.54	7.532
1202.91	40.857
1206.29	22.067
1209.66	47.362
1213.03	6.549
1216.41	8.979
1219.78	6.05
1223.16	35.695
1226.53	26.6
1229.91	47.253
1233.28	21.399
1236.66	13.079
1240.03	25.2
1243.41	0.08
1246.78	5.982
1250.16	24.696
1253.53	5.216
1256.91	32.926
1260.28	10.033
1263.66	15.154
1267.03	4.531
1270.41	47.385
1273.78	23.364
1277.16	15.563
1280.53	21.001
1283.9	10.994
1287.28	2.563
1290.65	36.16
1294.03	1.018
1297.4	20.709
1300.78	0
