Measurement: Raman, 785 nm, unoriented, Raman Data Processed
Mineral: Anilite
Rruff sample: R060688
Ideal chemistry: Cu_7_S_4_
Locality: Horai Halze bei Medenec, Erzgebirge, Czech Republic
Source: Michael Scott
Description: Black metallic massive; associated with malachite
Measured chemistry: Cu_6.96_S_4.00
Raman shift (cm-1)	intensity
145.151	0
148.044	137.19
150.936	100.033
153.829	33.3041
156.722	0.260254
159.615	1.89612
162.507	4.45679
165.4	73.4159
168.293	87.267
171.185	67.1862
174.078	33.5792
176.971	26.3119
179.863	11.3811
182.756	25.6367
185.649	22.6102
188.542	22.7025
191.434	0.282471
194.327	43.0643
197.22	23.8398
200.112	28.4628
203.005	45.5289
205.898	15.3845
208.791	22.103
211.683	2.03076
214.576	4.32837
217.469	24.3291
220.361	11.9178
223.254	10.6349
226.147	37.0082
229.04	41.8544
231.932	6.91296
234.825	14.0808
237.718	38.4279
240.61	42.0931
243.503	37.3511
246.396	34.561
249.288	42.7003
252.181	34.77
255.074	30.0385
257.966	42.4053
260.859	61.0149
263.752	30.2922
266.645	21.0511
269.537	26.4242
272.43	15.2715
275.323	28.3053
278.215	54.1942
281.108	19.7769
284.001	32.01
286.894	11.5781
289.786	21.7314
292.679	13.5927
295.572	13.1859
298.464	21.6075
301.357	47.7897
304.25	29.0037
307.142	11.7756
310.035	19.2076
312.928	21.3817
315.82	49.8807
318.713	10.2295
321.606	25.952
324.499	34.5052
327.391	31.5345
330.284	27.5413
333.177	22.3375
336.069	23.6967
338.962	9.21631
341.855	10.2106
344.748	38.346
347.64	30.525
350.533	20.1142
353.426	43.415
356.318	0.716431
359.211	2.8128
362.104	12.2374
364.996	19.7543
367.889	24.9174
370.782	8.83282
373.675	44.5157
376.567	29.5489
379.46	14.4559
382.353	21.5448
385.245	24.4534
388.138	40.8176
391.031	5.13873
393.923	8.54425
396.816	47.0991
399.709	39.4806
402.601	18.6245
405.494	23.3507
408.387	35.6857
411.28	34.2563
414.172	11.6807
417.065	21.1901
419.958	18.8533
422.85	5.7262
425.743	35.0406
428.636	26.272
431.529	12.0701
434.421	0.030823
437.314	15.8448
440.207	4.07965
443.099	17.8177
445.992	15.2086
448.885	27.9318
451.777	24.5798
454.67	3.58838
457.563	18.3798
460.455	16.0737
463.348	20.8517
466.241	28.4641
469.134	1.68945
472.026	7.34241
474.919	15.9332
477.812	18.2756
480.704	23.2548
483.597	28.8358
486.49	30.0955
489.382	13.506
492.275	11.5227
495.168	2.1604
498.061	23.7676
500.953	29.4729
503.846	4.47815
506.739	12.863
509.631	29.9363
512.524	19.9568
515.417	16.5743
518.309	18.3585
521.202	23.9934
524.095	11.4514
526.988	25.3246
529.88	28.7632
532.773	22.2354
535.666	7.48889
538.558	32.9131
541.451	39.1464
544.344	39.3175
547.236	42.2189
550.129	46.0642
553.022	28.1019
555.915	27.4578
558.807	28.9393
561.7	34.704
564.593	39.7476
567.485	5.37598
570.378	24.3969
573.271	8.42664
576.163	38.9221
579.056	49.1638
581.949	13.6756
584.842	42.2934
587.734	41.4957
590.627	26.5956
593.52	29.4862
596.413	2.44421
599.305	27.8483
602.198	53.7192
605.091	51.5662
607.983	36.8813
610.876	3.59155
613.769	30.7342
616.661	47.4939
619.554	9.35168
622.447	41.8234
625.34	27.7333
628.232	20.3263
631.125	18.568
634.018	15.6332
636.91	26.4346
639.803	17.6355
642.696	13.6855
645.588	26.597
648.481	41.9717
651.374	27.4477
654.266	21.0295
657.159	15.4345
660.052	47.0338
662.945	16.0518
665.837	20.375
668.73	16.6215
671.623	22.6848
674.515	32.0136
677.408	33.7269
680.301	43.1034
683.193	36.4703
686.086	11.4006
688.979	45.4033
691.872	32.1031
694.764	32.3181
697.657	40.0237
700.55	5.09077
703.442	34.2638
706.335	35.3297
709.228	29.171
712.12	1.44055
715.013	31.5669
717.906	12.9443
720.799	21.0633
723.691	10.9849
726.584	6.78613
729.477	39.0967
732.369	29.9397
735.262	25.78
738.155	25.9287
741.048	32.0432
743.94	16.8201
746.833	25.8746
749.726	40.6644
752.618	24.5914
755.511	43.6587
758.404	30.4159
761.296	16.7322
764.189	19.6909
767.082	30.0324
769.975	5.245
772.867	20.5284
775.76	19.6392
778.653	21.0469
781.545	7.06763
784.438	12.7926
787.331	5.27625
790.223	12.0815
793.116	45.1304
796.009	46.7009
798.902	5.5011
801.794	11.2045
804.687	2.66736
807.58	23.0762
810.472	17.4618
813.365	37.9868
816.258	18.7118
819.15	24.4463
822.043	8.29932
824.936	42.3341
827.828	41.7849
830.721	20.239
833.614	8.86621
836.507	12.2352
839.399	38.0391
842.292	17.7809
845.185	2.1781
848.077	4.05188
850.97	14.4938
853.863	28.116
856.755	52.6721
859.648	39.7167
862.541	59.1177
865.434	2.24292
868.326	42.1964
871.219	25.8908
874.112	33.0523
877.004	32.543
879.897	14.4343
882.79	23.6322
885.683	28.0636
888.575	19.144
891.468	30.5621
894.361	26.405
897.253	28.3257
900.146	8.53186
903.039	33.4539
905.931	31.4013
908.824	29.9008
911.717	9.21082
914.61	4.46155
917.502	31.9757
920.395	21.7097
923.288	20.5138
926.18	27.7479
929.073	17.4595
931.966	26.0946
934.859	25.7035
937.751	10.6925
940.644	14.5597
943.537	14.9601
946.429	22.6642
949.322	35.7249
952.215	14.6048
955.107	5.15137
958	26.1443
960.893	30.7182
963.785	30.3219
966.678	22.4315
969.571	40.4537
972.464	48.8972
975.356	11.4548
978.249	39.7208
981.142	29.2894
984.034	34.1602
986.927	48.7171
989.82	4.14514
992.712	24.6888
995.605	0.613159
998.498	17.9076
1001.39	31.7291
1004.28	19.9954
1007.18	21.44
1010.07	43.9628
1012.96	43.5489
1015.85	32.0861
1018.75	32.8738
1021.64	5.88715
1024.53	2.4259
1027.42	14.0111
1030.32	19.7392
1033.21	30.7525
1036.1	43.8771
1039	31.3701
1041.89	41.6377
1044.78	27.0821
1047.67	35.4597
1050.57	22.0591
1053.46	30.7677
1056.35	9.51062
1059.24	23.1141
1062.14	26.0311
1065.03	27.5331
1067.92	22.7961
1070.82	17.5586
1073.71	30.0158
1076.6	2.83252
1079.49	22.0837
1082.39	30.4954
1085.28	34.5478
1088.17	31.6275
1091.06	34.3851
1093.96	53.0645
1096.85	21.5348
1099.74	32.3247
1102.63	36.8738
1105.53	20.5361
1108.42	8.05786
1111.31	33.8582
1114.21	5.22876
1117.1	34.7529
1119.99	37.5973
1122.88	10.5571
1125.78	3.33356
1128.67	24.0314
1131.56	28.9078
1134.45	16.5461
1137.35	2.75909
1140.24	3.84228
1143.13	13.4053
1146.03	15.6472
1148.92	28.2792
1151.81	19.3275
1154.7	24.6508
1157.6	30.2892
1160.49	45.0282
1163.38	38.7543
1166.28	44.8802
1169.17	32.5284
1172.06	21.6729
1174.95	4.39905
1177.85	1.09161
1180.74	9.56323
1183.63	23.5278
1186.52	28.8882
1189.42	26.8204
1192.31	33.8461
1195.2	28.1948
1198.09	28.0915
1200.99	4.03174
