Measurement: Raman, 780 nm, unoriented, Raman Data Processed
Mineral: Anthoinite
Rruff sample: R070025
Ideal chemistry: AlW^6+^O_3_(OH)_3_
Locality: Kyakabingu, Bumbogo, Rwanda
Source: Michael Scott
Description: White, waxy flaky crystals associated with tan colored jarosite on quartz
Raman shift (cm-1)	intensity
313.334	239.176
315.745	207.969
318.156	213.461
320.566	143.051
322.977	159.426
325.387	83.3906
327.798	177.211
330.208	219.09
332.619	118.922
335.03	127.305
337.44	109.137
339.851	171.359
342.261	213.793
344.672	129.453
347.082	103.176
349.493	62.3555
351.904	205.328
354.314	191.477
356.725	230.027
359.135	148.543
361.546	246.656
363.957	69.7266
366.367	31.1367
368.778	262.688
371.188	26.7656
373.599	126.133
376.01	92.6758
378.42	46.8203
380.831	127.098
383.241	66.3281
385.652	260.281
388.062	197.324
390.473	231.082
392.884	22.5742
395.294	31.7266
397.705	145.856
400.115	86.6914
402.526	269.059
404.937	131.547
407.347	267.523
409.758	238.957
412.168	65.1719
414.579	205.938
416.989	215.016
419.4	215.172
421.811	191.035
424.221	132.269
426.632	278.801
429.042	251.047
431.453	103.344
433.863	276.363
436.274	158.246
438.685	306.449
441.095	195.973
443.506	250.184
445.916	276.613
448.327	190.879
450.738	3.55469
453.148	219.84
455.559	246.891
457.969	216.953
460.38	72.0664
462.791	191.816
465.201	258.625
467.612	108.68
470.022	204.363
472.433	210.445
474.843	124.641
477.254	195.633
479.665	120.359
482.075	84.9531
484.486	130.809
486.896	24.8125
489.307	269.379
491.717	108.746
494.128	192.168
496.539	218.422
498.949	156.508
501.36	156.996
503.77	93.1406
506.181	83.7422
508.592	218.066
511.002	56.625
513.413	262.785
515.823	41.5273
518.234	148.43
520.644	42.9883
523.055	151.234
525.466	185.367
527.876	56.0273
530.287	98.0469
532.697	46.332
535.108	126.008
537.519	83.5078
539.929	115.856
542.34	24.1875
544.75	23.2305
547.161	58.9023
549.572	83.8945
551.982	32.9258
554.393	56.8672
556.803	73.5469
559.214	10.2891
561.624	116.949
564.035	133.195
566.446	89.8672
568.856	261.562
571.267	54.957
573.677	55.7969
576.088	151.348
578.499	237.019
580.909	105.488
583.32	38.4766
585.73	379.566
588.141	163.883
590.551	184.918
592.962	258.981
595.373	154.566
597.783	99.6328
600.194	42.6211
602.604	164.371
605.015	133.356
607.426	91.625
609.836	115.211
612.247	128.578
614.657	200.602
617.068	130.055
619.478	166.391
621.889	160.812
624.3	177.934
626.71	119.176
629.121	135.082
631.531	98.9336
633.942	215.656
636.352	182.58
638.763	179.856
641.174	117.66
643.584	145.131
645.995	112.002
648.405	193.619
650.816	15.9414
653.227	144.205
655.637	152.223
658.048	26.9746
660.458	45.1992
662.869	66.1191
665.279	52.1992
667.69	216.238
670.101	84.6406
672.511	84.9785
674.922	60.7949
677.332	97.1191
679.743	126.336
682.154	46.7617
684.564	15.3223
686.975	52.957
689.385	62.9746
691.796	132.381
694.207	117.353
696.617	146.353
699.028	208.613
701.438	107.809
703.849	232.19
706.259	176.963
708.67	277.635
711.081	145.99
713.491	78.2519
715.902	126.326
718.312	173.898
720.723	3.46484
723.134	88.7559
725.544	51.1426
727.955	23.8965
730.365	141.666
732.776	194.85
735.186	150.217
737.597	57.4961
740.008	41.3633
742.418	131.539
744.829	79.9473
747.239	149.451
749.65	85.2676
752.061	14.0469
754.471	241.5
756.882	26.418
759.292	50.1523
761.703	100.391
764.113	3.05664
766.524	93.7871
768.935	62.1016
771.345	82.5469
773.756	55.5449
776.166	53.4492
778.577	0.714844
780.987	137.865
783.398	162.531
785.809	149.807
788.219	23.6406
790.63	52.6602
793.04	96.7812
795.451	49.3359
797.862	74.2168
800.272	119.789
802.683	2.02148
805.093	106.277
807.504	62.0176
809.914	111.746
812.325	40.7559
814.736	101.728
817.146	163.346
819.557	19.3027
821.967	26.1094
824.378	120.064
826.789	191.166
829.199	89.7363
831.61	127.795
834.02	33.332
836.431	84.0469
838.841	123.074
841.252	149.039
843.663	54.125
846.073	55.3965
848.484	27.0508
850.894	74.3731
853.305	142.539
855.716	80.6094
858.126	107.147
860.537	76.4824
862.947	27.8164
865.358	101.432
867.768	7.27734
870.179	76.2461
872.59	81.6231
875	43.0859
877.411	61.9961
879.821	156.68
882.232	36.7441
884.643	96.4981
887.053	14.9375
889.464	9.53516
891.874	123.285
894.285	132.129
896.695	163.527
899.106	95.1133
901.517	65.5801
903.927	73.7598
906.338	5.34766
908.748	58.3438
911.159	34.8633
913.569	132.254
915.98	65.5898
918.391	125.326
920.801	13.8105
923.212	102.307
925.622	117.564
928.033	223.016
930.444	45.9629
932.854	162.758
935.265	208.932
937.675	222.795
940.086	160.754
942.496	162.908
944.907	83.3223
947.318	75.4102
949.728	199.371
952.139	102.791
954.549	126.432
956.96	32.0098
959.371	146.697
961.781	90.6426
964.192	130.58
966.602	196.164
969.013	58.6016
971.423	18.9082
973.834	52.7031
976.245	4.90234
978.655	118.938
981.066	21.2383
983.476	4.0625
985.887	85.8438
988.298	5.91211
990.708	65.1543
993.119	75.2422
995.529	42.7441
997.94	19.3223
1000.35	81.3262
1002.76	73.2617
1005.17	47.9199
1007.58	68.5195
1009.99	110.139
1012.4	121.945
1014.81	170.682
1017.23	14.3984
1019.63	83.1738
1022.05	142.518
1024.46	68.1856
1026.87	152.002
1029.28	174.949
1031.69	138.742
1034.1	151.457
1036.51	209.033
1038.92	150.902
1041.33	259.504
1043.74	238.508
1046.15	174.465
1048.56	151.49
1050.97	174.238
1053.38	213.629
1055.79	100.66
1058.2	113.494
1060.62	120.482
1063.03	146.699
1065.44	232.594
1067.85	257.898
1070.26	147.625
1072.67	214.185
1075.08	262.416
1077.49	173.291
1079.9	115.006
1082.31	202.496
1084.72	174.514
1087.13	86.0879
1089.54	68.2519
1091.95	40.4648
1094.36	125.316
1096.77	71.4316
1099.18	22.9922
1101.6	67.6582
1104.01	28.3379
1106.42	45.5703
1108.83	38.793
1111.24	101.748
1113.65	19.6934
1116.06	64.3106
1118.47	10.2402
1120.88	13.8359
1123.29	38.2852
1125.7	47.0879
1128.11	48.0391
1130.52	71.4805
1132.93	112.494
1135.34	151.324
1137.75	97.2715
1140.16	60.2012
1142.58	101.701
1144.98	168.994
1147.4	79.7598
1149.81	125.518
1152.22	79.4746
1154.63	106.777
1157.04	153.42
1159.45	143.518
1161.86	149.01
1164.27	173.656
1166.68	118.891
1169.09	185.111
1171.5	126.758
1173.91	164.647
1176.32	217.422
1178.73	132.707
1181.14	142.566
1183.56	144.836
1185.96	17.498
1188.38	133.498
1190.79	175.273
1193.2	166.926
1195.61	188.598
1198.02	120.518
1200.43	115.102
1202.84	110.805
1205.25	65.6133
1207.66	115.164
1210.07	82.4043
1212.48	186.273
1214.89	224.9
1217.3	29.9238
1219.71	57.6777
1222.12	105.459
1224.54	118.773
1226.94	49.998
1229.36	104.045
1231.77	28.5215
1234.18	30.3027
1236.59	100.144
1239	93.2168
1241.41	137.891
1243.82	43.2539
1246.23	45.4531
1248.64	59.9434
1251.05	51.4902
1253.46	15.5098
1255.87	56.0371
1258.28	28.0244
1260.69	47.4414
1263.1	84.6318
1265.52	89.8818
1267.92	123.855
1270.34	16.1973
1272.75	0.589844
