Measurement: Raman, 785 nm, unoriented, Raman Data Processed
Mineral: Anthoinite
Rruff sample: R070025
Ideal chemistry: AlW^6+^O_3_(OH)_3_
Locality: Kyakabingu, Bumbogo, Rwanda
Source: Michael Scott
Description: White, waxy flaky crystals associated with tan colored jarosite on quartz
Raman shift (cm-1)	intensity
178.9	0
181.792	43.125
184.685	8.66016
187.578	264.461
190.47	378.43
193.363	509.199
196.256	789.613
199.148	824.762
202.041	922.352
204.934	819.668
207.827	382.047
210.719	520.512
213.612	618.519
216.505	619.711
219.397	917.738
222.29	982.633
225.183	635.379
228.076	692.477
230.968	895.59
233.861	1080.54
236.754	1238.77
239.646	1365.46
242.539	1243.59
245.432	1169.52
248.324	936.531
251.217	874.867
254.11	656.672
257.003	1004.64
259.895	1096.45
262.788	1233.11
265.681	1063.7
268.573	926.5
271.466	711.238
274.359	587.551
277.251	532.391
280.144	778.988
283.037	738.684
285.93	641.484
288.822	405.34
291.715	152.176
294.608	89.6328
297.5	66.0156
300.393	327.777
303.286	526.93
306.178	621.586
309.071	631.473
311.964	360.055
314.857	36.7578
317.749	154.801
320.642	41.3672
323.535	364.062
326.427	738.223
329.32	1032.57
332.213	1112.05
335.105	987.356
337.998	678.879
340.891	317.359
343.784	278.691
346.676	363.555
349.569	504.836
352.462	508.098
355.354	334.031
358.247	83.832
361.14	13.8711
364.032	16.9844
366.925	54.3984
369.818	141.281
372.711	293.234
375.603	425.531
378.496	244.426
381.389	110.559
384.281	96.6719
387.174	16.5156
390.067	22.6367
392.959	305.023
395.852	458.953
398.745	346.168
401.638	143.598
404.53	87.2539
407.423	85.3594
410.316	215.523
413.208	416.324
416.101	721.871
418.994	804.707
421.886	713.387
424.779	769.051
427.672	831.203
430.565	778.555
433.457	557.922
436.35	433.973
439.243	414.707
442.135	395.789
445.028	499.883
447.921	529.754
450.813	412.848
453.706	344.805
456.599	422.094
459.492	604.773
462.384	753.43
465.277	738.215
468.17	607.449
471.062	692.828
473.955	531.176
476.848	342.93
479.741	62.7578
482.633	208.238
485.526	103.914
488.419	296.707
491.311	309.125
494.204	170.707
497.097	22.2305
499.989	44.2969
502.882	22.4727
505.775	51.4375
508.668	172.523
511.56	198.269
514.453	138.41
517.346	180.394
520.238	149.707
523.131	376.34
526.024	173.969
528.916	236.379
531.809	162.852
534.702	66.9492
537.594	274.414
540.487	193.375
543.38	205.055
546.273	191.418
549.165	140.762
552.058	249.508
554.951	153.297
557.843	174.148
560.736	368.637
563.629	186.621
566.521	145.434
569.414	58.5156
572.307	4.14062
575.2	36.8867
578.092	89.0469
580.985	33.8672
583.878	148.773
586.77	121.91
589.663	178.25
592.556	35.5117
595.448	179.219
598.341	85.6953
601.234	247.551
604.127	72.2969
607.019	102.766
609.912	170.625
612.805	213.916
615.697	211.365
618.59	143.816
621.483	105.627
624.375	193.652
627.268	210.748
630.161	174.461
633.054	91.9961
635.946	144.555
638.839	184.131
641.732	130.076
644.624	117.391
647.517	30.8027
650.41	5.54883
653.302	90.4824
656.195	134.412
659.088	112.906
661.981	108.027
664.873	79.6113
667.766	20.498
670.659	126.17
673.551	117.982
676.444	125.266
679.337	168.336
682.229	46.4512
685.122	10.8535
688.015	99.2461
690.908	215.434
693.8	82.916
696.693	323.609
699.586	204.666
702.478	378.068
705.371	70.7637
708.264	187.697
711.156	250.227
714.049	96.5977
716.942	173.984
719.835	232.691
722.727	247.973
725.62	200.566
728.513	164.088
731.405	25.6992
734.298	130.131
737.191	191.723
740.083	240.785
742.976	244.291
745.869	222.99
748.762	395.838
751.654	455.209
754.547	438.889
757.44	129.324
760.332	196.158
763.225	124.814
766.118	161.789
769.01	128.838
771.903	58.8164
774.796	172.652
777.689	9.89648
780.581	51.5898
783.474	279.787
786.367	337.699
789.259	353.072
792.152	318.559
795.045	273.32
797.938	82.3144
800.83	3.125
803.723	23.7402
806.616	24.832
809.508	92.4141
812.401	38.791
815.294	117.379
818.186	35.5469
821.079	70.9648
823.972	5.09766
826.865	9.3125
829.757	98.9141
832.65	145.644
835.543	202.047
838.435	102.324
841.328	117.297
844.221	37.6445
847.114	85.7031
850.006	50.1777
852.899	58.6738
855.792	55.5781
858.684	150.488
861.577	223.685
864.47	88.9902
867.362	58.3418
870.255	164.596
873.148	124.096
876.041	100.545
878.933	199.93
881.826	208.012
884.719	115.619
887.611	1.9043
890.504	47.3301
893.397	27.4082
896.289	60.2402
899.182	65.4219
902.075	80.2598
904.968	200.322
907.86	313.828
910.753	379.447
913.646	332.402
916.538	299.141
919.431	246.93
922.324	163.324
925.216	160.353
928.109	171.246
931.002	249.094
933.894	296.375
936.787	191.996
939.68	10.9219
942.573	6.28125
945.465	92.918
948.358	93.4082
951.251	121.463
954.143	155.74
957.036	65.9883
959.929	100.369
962.821	64.6836
965.714	136.863
968.607	152.227
971.5	71.9785
974.392	121.519
977.285	42.0137
980.178	91.0781
983.07	162.113
985.963	13.4668
988.856	12.0684
991.748	88.2285
994.641	20.8594
997.534	101.916
1000.43	114.051
1003.32	136.834
1006.21	184.494
1009.11	142.975
1012	84.2441
1014.89	104.752
1017.78	66.5352
1020.67	55.1816
1023.57	39.9316
1026.46	38.1074
1029.35	62.9062
1032.25	152.74
1035.14	105.182
1038.03	188.221
1040.92	85.2773
1043.82	93.4141
1046.71	43.166
1049.6	84.6484
1052.49	96.8438
1055.39	96.3066
1058.28	145.984
1061.17	124.049
1064.07	12.7949
1066.96	112.242
1069.85	74.3887
1072.74	12.6504
1075.64	82.6328
1078.53	33.4648
1081.42	108.273
1084.32	198.647
1087.21	46.7246
1090.1	86.3242
1092.99	75.6641
1095.89	50.4531
1098.78	194.777
1101.67	70.2559
1104.56	94.3945
1107.46	65.3633
1110.35	33.7168
1113.24	67.3731
1116.13	105.93
1119.03	110.272
1121.92	37.1797
1124.81	131.475
1127.7	77.6074
1130.6	20.3438
1133.49	37.6289
1136.38	67.0703
1139.28	9.85938
1142.17	41.7715
1145.06	25.1582
1147.95	91.834
1150.85	119.467
1153.74	23.707
1156.63	68.5234
1159.53	153.885
1162.42	28.2324
1165.31	176.58
1168.2	85.334
1171.1	49.7148
1173.99	47.2315
1176.88	40.6904
1179.77	101.522
1182.67	17.874
1185.56	52.957
1188.45	12.3877
1191.35	136.12
1194.24	35.3174
1197.13	159.12
1200.02	170.301
1202.92	107.686
1205.81	53.0762
1208.7	28.5352
1211.59	82.8818
1214.49	101.837
1217.38	141.273
1220.27	110.192
1223.16	154.19
1226.06	308.478
1228.95	122.33
1231.84	127.244
1234.73	31.6836
1237.63	154.826
1240.52	131.022
1243.41	90.4131
1246.31	71.8721
1249.2	113.102
1252.09	61.709
1254.98	41.2432
1257.88	61.7002
1260.77	162.651
1263.66	123.078
1266.56	102.157
1269.45	1.66894
1272.34	0.802734
