Measurement: Raman, 532 nm, unoriented, Raman Data Processed
Mineral: Anthoinite
Rruff sample: R070025
Ideal chemistry: AlW^6+^O_3_(OH)_3_
Locality: Kyakabingu, Bumbogo, Rwanda
Source: Michael Scott
Description: White, waxy flaky crystals associated with tan colored jarosite on quartz
Raman shift (cm-1)	intensity
149.536	0
152.429	185.223
155.322	270.758
158.214	350.188
161.107	354.574
164	240.859
166.893	271.375
169.785	17.6836
172.678	31.6758
175.571	7.23438
178.463	112.25
181.356	170.535
184.249	410.894
187.142	184.602
190.034	239.094
192.927	470.543
195.82	300.539
198.712	24.7539
201.605	76.375
204.498	230.816
207.39	218.344
210.283	85.2539
213.176	30.6797
216.069	46.0078
218.961	50.1445
221.854	180.492
224.747	249.133
227.639	299.648
230.532	459.789
233.425	308.137
236.317	190.441
239.21	90.832
242.103	204.797
244.995	147.199
247.888	176.551
250.781	342.621
253.674	268.734
256.566	401.477
259.459	338.859
262.352	320.867
265.244	398.254
268.137	685.363
271.03	745.207
273.923	509.043
276.815	325.523
279.708	230.289
282.601	137.129
285.493	229.613
288.386	166.727
291.279	192.758
294.171	103.731
297.064	35.7656
299.957	108.484
302.849	229.734
305.742	197.348
308.635	182.941
311.528	173.523
314.42	227.449
317.313	53.2305
320.206	141.617
323.098	237.82
325.991	134.367
328.884	302.57
331.776	583.375
334.669	601.352
337.562	321.156
340.455	497.773
343.347	335.106
346.24	44.9336
349.133	207.531
352.025	386.481
354.918	292.688
357.811	144.043
360.704	72.7344
363.596	14.3984
366.489	38.3281
369.382	226.258
372.274	107.113
375.167	228.953
378.06	92.8242
380.952	296.793
383.845	266.422
386.738	339.875
389.63	87.6641
392.523	208.492
395.416	48.7188
398.308	147.926
401.201	141.512
404.094	274.637
406.987	45.8047
409.879	159.371
412.772	246.656
415.665	201.219
418.557	261.973
421.45	203.113
424.343	35.6484
427.236	5.22266
430.128	166.82
433.021	340.852
435.914	318.481
438.806	148.656
441.699	313.856
444.592	282.891
447.484	308.441
450.377	267.941
453.27	269.523
456.163	222.949
459.055	97.6328
461.948	128.578
464.841	172.621
467.733	70.6484
470.626	220.766
473.519	316.59
476.411	4.48438
479.304	298.332
482.197	89.4883
485.089	143.078
487.982	343.394
490.875	335.176
493.768	133.922
496.66	17.7617
499.553	98.1328
502.446	342.43
505.338	208.637
508.231	20.0312
511.124	44.3203
514.016	292.133
516.909	179.594
519.802	91.8516
522.695	113.219
525.587	43.7188
528.48	80.3086
531.373	238.59
534.265	282.652
537.158	300.965
540.051	417.438
542.943	126.606
545.836	162.242
548.729	237.812
551.622	256.894
554.514	98.6523
557.407	27.9531
560.3	332.586
563.192	335.539
566.085	201.644
568.978	22.293
571.87	29.3008
574.763	205.703
577.656	414.859
580.549	265.769
583.441	304.332
586.334	354.707
589.227	278.801
592.119	290.914
595.012	502.277
597.905	552.047
600.798	281.406
603.69	348.496
606.583	238.106
609.476	134.512
612.368	308.117
615.261	249.195
618.154	343.961
621.046	244.941
623.939	180.703
626.832	253.051
629.725	253.043
632.617	219.523
635.51	188.488
638.403	177.312
641.295	304.805
644.188	179.832
647.081	170.809
649.973	131.731
652.866	311.988
655.759	357.539
658.651	296.746
661.544	310.383
664.437	201.164
667.33	224.809
670.222	89.0938
673.115	224.469
676.008	72.5859
678.9	324.852
681.793	235.738
684.686	447.891
687.578	218.66
690.471	136.473
693.364	18.1523
696.256	146.027
699.149	166.688
702.042	234.863
704.935	297.406
707.827	176.941
710.72	288.867
713.613	163.773
716.505	428.801
719.398	311.375
722.291	214.031
725.183	304.285
728.076	281.019
730.969	184.559
733.862	73.7266
736.754	14.5078
739.647	36.0586
742.54	147.867
745.432	136.109
748.325	224.856
751.218	135.785
754.111	76.6758
757.003	29.9766
759.896	17.5352
762.789	31.9844
765.681	177.891
768.574	355.172
771.467	431.125
774.359	359.383
777.252	185.586
780.145	215.883
783.038	176.07
785.93	259.977
788.823	270.606
791.716	188.543
794.608	93.9922
797.501	283.156
800.394	273.359
803.286	332.625
806.179	221.184
809.072	298.285
811.965	319.801
814.857	88.293
817.75	90.3477
820.643	58.3555
823.535	186.672
826.428	311.82
829.321	335.957
832.213	84.8203
835.106	67.8945
837.999	9.16406
840.891	59.9062
843.784	268.168
846.677	224.031
849.57	245.762
852.462	308.711
855.355	203.777
858.248	308.934
861.14	241.398
864.033	242.434
866.926	173.762
869.818	98.7617
872.711	51.7227
875.604	5.57812
878.497	233.16
881.389	276.758
884.282	286.914
887.175	414.102
890.067	107.016
892.96	22.7031
895.853	341.68
898.745	106.93
901.638	214.074
904.531	29.5039
907.424	81.7031
910.316	190.383
913.209	225.57
916.102	233.176
918.994	197.273
921.887	104.523
924.78	102.82
927.673	274.473
930.565	47.7305
933.458	23.0938
936.351	112.769
939.243	384.594
942.136	121.156
945.029	262.488
947.921	402.055
950.814	245.629
953.707	263.481
956.6	223.961
959.492	264.75
962.385	97.6328
965.278	185.91
968.17	299.465
971.063	390.133
973.956	193.988
976.848	154.473
979.741	129.289
982.634	291.707
985.527	210.231
988.419	116.406
991.312	122.856
994.205	35.4805
997.097	257.227
999.99	322.965
1002.88	404.375
1005.77	315.894
1008.67	82.332
1011.56	359.062
1014.45	201.184
1017.35	436.336
1020.24	189.219
1023.13	237.664
1026.02	16.3711
1028.92	7.02734
1031.81	369.238
1034.7	157.254
1037.6	122.176
1040.49	223.316
1043.38	70.625
1046.27	56.8711
1049.17	1.33203
1052.06	43.3555
1054.95	6.74609
1057.84	93.9453
1060.74	225.473
1063.63	169.391
1066.52	155.453
1069.41	13.9922
1072.31	81.5195
1075.2	100.074
1078.09	115.934
1080.98	345.051
1083.88	76.6484
1086.77	200.543
1089.66	356.777
1092.56	148.113
1095.45	46.3203
1098.34	240.828
1101.23	139.644
1104.13	176.352
1107.02	208.309
1109.91	347.668
1112.81	512.648
1115.7	419.144
1118.59	157.981
1121.48	206.414
1124.38	287.606
1127.27	235.934
1130.16	482.738
1133.05	360.606
1135.95	399.777
1138.84	423.766
1141.73	96.3711
1144.62	196.996
1147.52	294.371
1150.41	326.129
1153.3	293.434
1156.2	160.246
1159.09	15.0273
1161.98	253.285
1164.87	43.3398
1167.77	69.9102
1170.66	261.527
1173.55	261.945
1176.44	200.731
1179.34	104.664
1182.23	158.223
1185.12	168.266
1188.02	313.176
1190.91	549.266
1193.8	144.547
1196.69	260.125
1199.59	97.7695
1202.48	32.2305
1205.37	190.731
1208.26	362.488
1211.16	197.992
1214.05	175.676
1216.94	23.1914
1219.84	287.57
1222.73	76.9883
1225.62	130.164
1228.51	103.199
1231.41	198.348
1234.3	131.938
1237.19	32.4102
1240.08	326.738
1242.98	260.613
1245.87	262.285
1248.76	400.633
1251.65	366.531
1254.55	453.008
1257.44	188.684
1260.33	325.121
1263.23	229.773
1266.12	63.1445
1269.01	126.082
1271.9	358.742
1274.8	220.215
1277.69	91.0703
