Measurement: Raman, 785 nm, unoriented, Raman Data Processed
Mineral: Apachite
Rruff sample: R060694
Ideal chemistry: Cu^2+^_9_Si_10_O_29_11H_2_O
Locality: Christmas mine, Gila County, Arizona, USA
Source: Bob Jenkins
Description: Spherical aggregates of pale blue fibers, associated with yellowish-orange andradite and colorless calcite
Raman shift (cm-1)	intensity
210.719	0
213.612	22.5459
216.505	61.6763
219.397	81.9009
222.29	63.9746
225.183	38.2446
228.076	45.0933
230.968	34.1167
233.861	63.4614
236.754	88.9556
239.646	65.3232
242.539	35.5576
245.432	31.8457
248.324	100.95
251.217	56.6636
254.11	83.6357
257.002	115.148
259.895	92.6206
262.788	50.7852
265.681	75.6436
268.573	39.0571
271.466	1.07471
274.359	21.1186
277.251	1.77978
280.144	115.658
283.037	115.269
285.93	85.0674
288.822	23.4219
291.715	19.0464
294.608	5.92676
297.5	52.2964
300.393	59.9258
303.286	90.9404
306.178	77.3501
309.071	80.5312
311.964	6.60254
314.856	59.687
317.749	56.2402
320.642	34.7568
323.535	60.2227
326.427	125.88
329.32	191.04
332.213	124.789
335.105	81.8403
337.998	44.9028
340.891	80.5508
343.784	66.3989
346.676	72.564
349.569	100.251
352.462	105.585
355.354	82.3442
358.247	47.1216
361.14	34.3491
364.032	36.7095
366.925	48.8062
369.818	112.966
372.711	81.1963
375.603	54.4756
378.496	141.609
381.389	89.5049
384.281	40.0288
387.174	72.083
390.067	73.3936
392.959	59.1855
395.852	93.4492
398.745	80.9028
401.637	127.062
404.53	51.0005
407.423	70.6948
410.316	61.687
413.208	113.524
416.101	105.848
418.994	77.0381
421.886	90.3921
424.779	96.2637
427.672	115.21
430.565	112.648
433.457	94.3501
436.35	46.9619
439.243	88.6191
442.135	46.8433
445.028	81.6021
447.921	60.269
450.813	54.7515
453.706	2.05371
456.599	21.7202
459.491	24.6152
462.384	108.888
465.277	42.3013
468.17	24.0264
471.062	33.5132
473.955	12.959
476.848	45.2529
479.74	46.4238
482.633	48.209
485.526	56.9482
488.418	69.2236
491.311	118.073
494.204	65.1211
497.097	30.1416
499.989	59.081
502.882	72.1313
505.775	41.8857
508.667	47.7573
511.56	87.3652
514.453	46.5107
517.346	59.4136
520.238	111.449
523.131	90.8657
526.024	117.311
528.916	63.6289
531.809	54.6558
534.702	44.3623
537.594	73.0864
540.487	83.5508
543.38	5.19971
546.273	30.125
549.165	63.7212
552.058	57.5391
554.951	38.9766
557.843	94.3789
560.736	116.434
563.629	58.1152
566.521	35.5913
569.414	31.8628
572.307	9.86621
575.199	36.9536
578.092	29.3872
580.985	68.6196
583.878	48.415
586.77	17.5059
589.663	1.66992
592.556	31.1323
595.448	31.8838
598.341	55.9932
601.234	53.1318
604.126	20.5337
607.019	3.76221
609.912	18.0581
612.805	36.4141
615.697	0.154785
618.59	41.7466
621.483	36.294
624.375	1.63525
627.268	28.729
630.161	47.6445
633.053	34.8423
635.946	18.46
638.839	86.6094
641.732	84.8545
644.624	75.0405
647.517	101.105
650.41	119.825
653.302	173.276
656.195	154.845
659.088	171.267
661.981	158.298
664.873	206.61
667.766	180.262
670.659	249.122
673.551	178.868
676.444	168.857
679.337	110.041
682.229	110.05
685.122	67.2852
688.015	104.464
690.908	66.9585
693.8	63.3394
696.693	49.5088
699.586	77.5977
702.478	25.0835
705.371	75.6831
708.264	44.8599
711.156	4.32129
714.049	16.9595
716.942	25.9629
719.835	26.5659
722.727	113.843
725.62	104.79
728.513	89.9678
731.405	48.2017
734.298	53.0869
737.191	26.0317
740.083	1.21728
742.976	53.8169
745.869	30.3423
748.761	93.6807
751.654	29.374
754.547	27.9702
757.44	42.2305
760.332	107.832
763.225	48.9907
766.118	76.2881
769.01	28.73
771.903	28.54
774.796	73.1528
777.688	40.1816
780.581	39.1636
783.474	61.9014
786.367	54.0142
789.259	52.9907
792.152	50.7998
795.045	89.0576
797.937	57.6704
800.83	8.2207
803.723	31.8696
806.615	14.7285
809.508	28.8892
812.401	53.5098
815.294	42.1699
818.186	13.6597
821.079	49.3374
823.972	19.0933
826.864	45.1929
829.757	50.811
832.65	66.5527
835.542	41.5395
838.435	49.7998
841.328	2.33789
844.221	65.5815
847.113	24.3984
850.006	89.4477
852.899	86.999
855.791	76.2002
858.684	85.7866
861.577	26.0283
864.469	62.6934
867.362	50.1807
870.255	59.7461
873.148	0.451172
876.04	32.8037
878.933	38.8403
881.826	84.0791
884.718	81.5889
887.611	108.511
890.504	20.9053
893.396	55.8101
896.289	49.7324
899.182	16.2505
902.074	18.2979
904.967	45.877
907.86	70.4536
910.753	68.8809
913.645	60.1475
916.538	55.5312
919.431	68.5708
922.323	12.4888
925.216	34.3691
928.109	19.9819
931.001	59.1191
933.894	81.9888
936.787	63.7231
939.68	41.9346
942.572	85.5664
945.465	44.147
948.358	39.4673
951.25	39.0415
954.143	53.4785
957.036	83.9487
959.928	69.1201
962.821	85.2481
965.714	53.4009
968.607	76.4365
971.499	60.5127
974.392	45.397
977.285	30.6909
980.177	15.0171
983.07	61.0879
985.963	53.6094
988.856	27.6885
991.748	17.6152
994.641	20.3252
997.534	21.0938
1000.43	65.2441
1003.32	15.2178
1006.21	49.4165
1009.1	2.74658
1012	28.1851
1014.89	17.5747
1017.78	24.1338
1020.67	3.95996
1023.57	20.1416
1026.46	44.919
1029.35	41.3384
1032.25	51.064
1035.14	62.4658
1038.03	31.1963
1040.92	50.7109
1043.82	48.4722
1046.71	6.88525
1049.6	19.3389
1052.49	12.5464
1055.39	16.1914
1058.28	63.8813
1061.17	44.3472
1064.07	25.1406
1066.96	17.6416
1069.85	34.1211
1072.74	58.3315
1075.64	58.2192
1078.53	23.6128
1081.42	9.35156
1084.32	110.179
1087.21	49.9199
1090.1	17.9722
1092.99	32.085
1095.88	15.8535
1098.78	14.3188
1101.67	48.2842
1104.56	38.8272
1107.46	25.3901
1110.35	15.5859
1113.24	39.8545
1116.13	57.0215
1119.03	58.332
1121.92	19.5449
1124.81	3.29932
1127.7	60.2466
1130.6	103.445
1133.49	22.2842
1136.38	95.564
1139.28	36.3984
1142.17	56.4932
1145.06	28.2471
1147.95	22.8311
1150.85	12.2642
1153.74	31.3643
1156.63	20.8638
1159.53	58.4546
1162.42	42.8149
1165.31	90.8564
1168.2	45.1812
1171.1	20.9512
1173.99	35.877
1176.88	35.9888
1179.77	34.8491
1182.67	12.5918
1185.56	47.3096
1188.45	5.31787
1191.34	4.49072
1194.24	0.199707
1197.13	26.459
1200.02	21.3232
1202.91	23.2812
1205.81	22.188
1208.7	16.7305
1211.59	18.0815
1214.49	66.5132
1217.38	43.084
1220.27	76.1231
1223.16	29.334
1226.06	102.02
1228.95	37.3237
1231.84	21.8447
1234.73	48.5801
1237.63	23.8569
1240.52	27.6274
1243.41	55.5449
1246.31	62.7778
1249.2	25.8262
1252.09	6.43506
1254.98	0
