Measurement: Raman, 785 nm, unoriented, Raman Data Processed
Mineral: Aragonite
Rruff sample: X050023
Ideal chemistry: CaCO_3_
Locality: Spain
Source: Caltech
Raman shift (cm-1)	intensity
206	0
210	700.063
214	70.968
218	3.643
222	50.616
226	76.741
230	68.064
234	80.642
238	136.682
242	248.108
246	429.32
250	503.77
254	425.054
258	435.541
262	473.149
266	342.129
270	312.702
274	321.376
278	263.822
282	223.412
286	194.132
290	161.752
294	136.43
298	121.768
302	113.706
306	111.302
310	105.831
314	120.983
318	177.713
322	188.427
326	175.416
330	169.544
334	171.679
338	180.139
342	191.681
346	195.711
350	175.783
354	154.296
358	144.116
362	143.654
366	146.764
370	150.09
374	141.068
378	121.458
382	104.007
386	87.844
390	74.877
394	66.042
398	56.176
402	49.045
406	41.665
410	35.511
414	29.657
418	27.156
422	22.923
426	17.88
430	14.052
434	11.611
438	9.938
442	6.67
446	4.701
450	2.873
454	3.3
458	2.686
462	2.074
466	1.829
470	2.302
474	2.214
478	0.626
482	0.287
486	0.207
490	0.312
494	1.112
498	2.127
502	2.767
506	3.351
510	4.197
514	4.222
518	4.801
522	4.226
526	5.026
530	4.847
534	4.946
538	3.408
542	4.378
546	3.782
550	1.944
554	1.172
558	1.318
562	0.489
566	1.462
570	1.923
574	3.339
578	5.105
582	6.001
586	7.541
590	8.706
594	8.542
598	10.008
602	10.443
606	11.801
610	11.101
614	11.626
618	13.359
622	12.732
626	13.07
630	13.157
634	12.878
638	14.338
642	14.291
646	14.981
650	14.526
654	14.983
658	15.364
662	15.731
666	15.066
670	13.805
674	14.02
678	13.94
682	14.617
686	16
690	21.89
694	33.328
698	176.844
702	483.194
706	275.274
710	78.641
714	68.48
718	93.904
722	29.748
726	19.77
730	14.962
734	12.727
738	12.63
742	12.325
746	13.107
750	14.58
754	15.557
758	15.217
762	11.293
766	7.404
770	5.318
774	4.123
778	2.676
782	2.397
786	2.343
790	2.489
794	3.183
798	4.231
802	7.284
806	10.548
810	13.384
814	14.022
818	8.089
822	5.856
826	2.784
830	1.603
834	1.396
838	1.972
842	4.02
846	4.038
850	25.505
854	46.475
858	6.081
862	0.963
866	0.405
870	1.356
874	2.235
878	2.967
882	3.291
886	5.392
890	8.068
894	13.107
898	16.908
902	17.72
906	15.516
910	9.23
914	4.117
918	0.976
922	0.278
926	0.278
930	0.052
934	0.903
938	1.736
942	0.779
946	0.119
950	0.315
954	0.365
958	0.129
962	0.375
966	1.555
970	1.442
974	2.305
978	3.97
982	5.175
986	5.408
990	5.578
994	4.012
998	4.683
1002	3
1006	3.778
1010	3.916
1014	3.861
1018	1.761
1022	3.373
1026	1.022
1030	0.65
1034	0.283
1038	1.058
1042	2.415
1046	7.18
1050	14.133
1054	25.799
1058	61.447
1062	53.259
1066	60.215
1070	80.326
1074	132.864
1078	368.926
1082	3968.66
1086	7586.84
1090	512.631
1094	223.012
1098	243.761
1102	316.888
1106	415.112
1110	500.553
1114	502.881
1118	410.878
1122	289.147
1126	190.656
1130	122.433
1134	74.186
1138	41.542
1142	19.059
1146	4.968
1150	8.291
1154	14.512
1158	18.854
1162	19.713
1166	14.913
1170	8.082
1174	8.894
1178	33.455
1182	73.196
1186	130.562
1190	222.018
1194	376.598
1198	643.479
1202	1102.17
1206	1636.22
1210	1810.85
1214	1531.93
1218	1177.96
1222	911.69
1226	767.835
1230	728.66
1234	780.801
1238	852.88
1242	862.85
1246	762.878
1250	611.131
1254	455.988
1258	330.664
1262	233.079
1266	165.829
1270	122.963
1274	103.227
1278	107.12
1282	137.458
1286	201.434
1290	306.513
1294	483.506
1298	762.44
1302	1237.2
1306	1926.31
1310	2633.11
1314	2787.31
1318	2442.4
1322	2254.23
1326	2531.88
1330	3293.93
1334	4152.22
1338	4379.64
1342	3772.36
1346	2845.36
1350	2058.8
1354	1487.27
1358	1085.33
1362	810.398
1366	615.734
1370	470.247
1374	364.94
1378	281.24
1382	220.843
1386	179.484
1390	145.344
1394	116.334
1398	94.671
1402	73.865
1406	56.672
1410	43.438
1414	33.286
1418	25.142
1422	15.549
1426	9.331
1430	2.141
1434	2.019
1438	5.108
1442	4.145
1446	7.278
1450	6.201
1454	2.027
1458	38.659
1462	73.328
1466	22.211
1470	8.598
1474	8.451
1478	8.335
1482	13.329
1486	13.453
1490	6.36
1494	5.5
1498	0.928
