Measurement: Raman, 532 nm, unoriented, Raman Data Processed
Mineral: Arapovite
Rruff sample: R060672
Ideal chemistry: (K_1-x_[box]_x_)(Ca,Na)_2_U^4+^Si_8_O_20_ (x~0.5)
Locality: Dara-i-Pioz Glacier, Hait, Alayskiy (Alai) Range, Tien Shan Mountains, Tajikistan
Source: Michael Scott
Description: Dark green prismatic crystals with rectangular shapes
Raman shift (cm-1)	intensity
142.254	0
145.147	159.298
148.039	175.17
150.932	125.949
153.825	98.533
156.717	142.854
159.61	299.911
162.503	469.104
165.396	478.178
168.288	461.227
171.181	355.759
174.074	330.763
176.966	358.384
179.859	428.673
182.752	557.76
185.645	568.109
188.537	480.812
191.43	489.305
194.323	459.076
197.215	421.13
200.108	386.222
203.001	348.933
205.893	365.228
208.786	238.37
211.679	211.078
214.572	187.973
217.464	156.033
220.357	32.454
223.25	113.506
226.142	64.926
229.035	61.337
231.928	17.179
234.82	29.492
237.713	37.301
240.606	27.537
243.498	29.049
246.391	85.936
249.284	24.941
252.176	22.17
255.069	39.861
257.962	10.535
260.855	21.04
263.747	82.492
266.64	5.905
269.533	44.024
272.425	74.755
275.318	78.395
278.211	86.943
281.103	214.728
283.996	293.645
286.889	341.537
289.782	432.781
292.674	479.867
295.567	444.206
298.46	567.034
301.352	621.078
304.245	688.984
307.138	739.483
310.03	744.771
312.923	647.018
315.816	670.804
318.709	621.731
321.601	630.368
324.494	605.559
327.387	728.604
330.279	727.898
333.172	732.986
336.065	784.192
338.957	887.912
341.85	888.063
344.743	884.069
347.635	910.238
350.528	962.354
353.421	1051.4
356.314	1148.96
359.206	1157.86
362.099	1249.24
364.992	1339.87
367.884	1234.79
370.777	1269.93
373.67	1226.41
376.562	1123.65
379.455	1082.8
382.348	876.353
385.241	751.102
388.133	678.126
391.026	634.22
393.919	646.954
396.811	647.113
399.704	642.512
402.597	757.562
405.49	804.144
408.382	815.582
411.275	931.013
414.168	967.513
417.06	1143.18
419.953	1152.38
422.846	1409.97
425.738	1598.3
428.631	1692.84
431.524	1845.1
434.417	1879.36
437.309	1861.86
440.202	1852.81
443.095	1697.08
445.987	1664.6
448.88	1594.46
451.773	1487.57
454.665	1631.97
457.558	1556.16
460.451	1608.64
463.343	1629.94
466.236	1409.26
469.129	1196.43
472.022	949.874
474.914	799.811
477.807	542.84
480.7	532.342
483.592	457.868
486.485	458.337
489.378	491.577
492.27	273.642
495.163	291.367
498.056	290.665
500.948	253.815
503.841	271.267
506.734	234.419
509.627	304.181
512.519	288.465
515.412	386.718
518.305	399.459
521.197	474.429
524.09	430.396
526.983	440.514
529.875	362.566
532.768	371.664
535.661	404.846
538.554	376.654
541.446	347.608
544.339	418.695
547.232	396.846
550.124	436.179
553.017	421.003
555.91	396.748
558.802	357.534
561.695	449.308
564.588	506.021
567.481	492.149
570.373	570.816
573.266	567.249
576.159	556.076
579.051	590.356
581.944	574.931
584.837	673.786
587.729	860.984
590.622	725.542
593.515	780.999
596.407	687.933
599.3	664.263
602.193	697.6
605.086	717.188
607.978	743.492
610.871	795.616
613.764	756.959
616.656	728.151
619.549	704.421
622.442	793.796
625.334	824.923
628.227	687.175
631.12	714.645
634.013	658.514
636.905	772.038
639.798	748.995
642.691	938.864
645.583	907.632
648.476	951.666
651.369	1100.26
654.261	1056.78
657.154	927.332
660.047	834.511
662.94	838.798
665.832	825.727
668.725	763.267
671.618	790.123
674.51	695.072
677.403	672.042
680.296	668.727
683.188	663.934
686.081	722.486
688.974	667.464
691.867	671.256
694.759	624.099
697.652	632.558
700.545	569.579
703.437	526.739
706.33	402.839
709.223	495.055
712.115	524.51
715.008	453.311
717.901	526.033
720.794	516.465
723.686	493.105
726.579	446.979
729.472	453.667
732.364	395.946
735.257	388.571
738.15	377.547
741.042	430.512
743.935	420.085
746.828	439.873
749.721	473.18
752.613	396.383
755.506	379.819
758.399	429.531
761.291	269.16
764.184	251.735
767.077	269.759
769.969	244.208
772.862	261.745
775.755	277.279
778.648	331.054
781.54	364.966
784.433	298.927
787.326	302.502
790.218	264.229
793.111	296.396
796.004	303.095
798.896	169.403
801.789	177.977
804.682	31.177
807.574	52.902
810.467	83.609
813.36	1.446
816.253	26.981
819.145	45.81
822.038	61.931
824.931	54.574
827.823	44.47
830.716	82.49
833.609	81.216
836.501	100.133
839.394	88.482
842.287	65.405
845.18	111.327
848.072	127.614
850.965	146.193
853.858	53.52
856.75	65.02
859.643	151.843
862.536	69.431
865.428	14.859
868.321	7.894
871.214	20.988
874.106	94.799
876.999	63.153
879.892	73.646
882.784	69.021
885.677	168.13
888.57	195.578
891.463	236.624
894.355	185.471
897.248	274.915
900.141	275.046
903.033	293.948
905.926	292.252
908.819	335.797
911.711	309.193
914.604	315.102
917.497	367.869
920.39	381.339
923.282	444.945
926.175	536.087
929.068	516.661
931.96	533.846
934.853	546.371
937.746	578.118
940.638	619.665
943.531	581.197
946.424	655.629
949.317	634.227
952.209	765.039
955.102	727.126
957.995	798.876
960.887	922.62
963.78	929.487
966.673	991
969.565	1016.5
972.458	1068.2
975.351	1133.72
978.244	1218.73
981.136	1161.32
984.029	1221.53
986.922	1282.06
989.814	1147.37
992.707	1283.32
995.6	1266.95
998.492	1233.48
1001.38	1260.2
1004.28	1202.13
1007.17	1120.23
1010.06	1099.84
1012.96	1028.96
1015.85	919.288
1018.74	916.519
1021.63	782.642
1024.53	855.407
1027.42	745.527
1030.31	752.51
1033.2	676.584
1036.1	632.562
1038.99	619.586
1041.88	603.237
1044.78	583.952
1047.67	545.667
1050.56	551.181
1053.45	610.465
1056.35	564.35
1059.24	618.833
1062.13	607.599
1065.03	660.131
1067.92	565.792
1070.81	625.96
1073.7	732.181
1076.6	701.868
1079.49	638.766
1082.38	703.069
1085.27	763.984
1088.17	783.868
1091.06	829.327
1093.95	899.618
1096.84	970.377
1099.74	1044.14
1102.63	1101.43
1105.52	1214.01
1108.41	1286.54
1111.31	1506.69
1114.2	1557.74
1117.09	1757.99
1119.99	1952.72
1122.88	2113.74
1125.77	2094.47
1128.66	2034.09
1131.56	1847.89
1134.45	1514.95
1137.34	1162.85
1140.23	948.835
1143.13	757.428
1146.02	481.079
1148.91	334.559
1151.81	321.768
1154.7	226.98
1157.59	180.245
1160.48	152.849
1163.38	34.123
1166.27	13.054
1169.16	36.485
1172.05	41.488
1174.95	6.278
1177.84	3.966
1180.73	24.7
1183.62	2.23
1186.52	24.011
1189.41	91.956
1192.3	28.639
1195.2	31.396
1198.09	97.833
1200.98	96.954
1203.87	87.1
1206.77	54.123
1209.66	3.014
1212.55	66.638
1215.44	27.33
1218.34	49.772
1221.23	111.2
1224.12	103.061
1227.02	75.686
1229.91	42.623
1232.8	26.66
1235.69	45.04
1238.59	43.654
1241.48	6.488
1244.37	73.232
1247.26	40.61
1250.16	51.355
1253.05	52.805
1255.94	35.835
1258.84	6.758
1261.73	66.358
1264.62	44.978
1267.51	2.206
1270.41	55.897
1273.3	70.467
1276.19	76.226
1279.08	25.049
1281.98	17.608
1284.87	32.629
1287.76	20.188
1290.65	17.925
1293.55	38.588
1296.44	39.364
