Measurement: Raman, 780 nm, unoriented, Raman Data Processed
Mineral: Aravaipaite
Rruff sample: R100032
Ideal chemistry: Pb^2+^_3_AlF_9_H_2_O
Locality: Grand Reef mine, Klondyke, Aravaipa District, Graham County, Arizona, USA
Source: William W. Pinch
Description: Transparent sheets, associated with laurelite R100011 and scotlandite R100043
Raman shift (cm-1)	intensity
118.532	0
121.907	2.08862
125.281	2.64319
128.656	5.41333
132.031	3.21594
135.406	0.404907
138.781	1.00354
142.155	1.91846
145.53	1.95215
148.905	13.1661
152.28	5.39856
155.655	8.72949
159.03	7.30078
162.404	9.47376
165.779	13.9255
169.154	11.354
172.529	10.1847
175.904	18.6776
179.278	15.2938
182.653	15.5295
186.028	11.3955
189.403	12.4769
192.778	19.3604
196.153	11.829
199.527	15.9683
202.902	13.7888
206.277	13.5284
209.652	10.2645
213.027	21.7355
216.401	19.775
219.776	19.4082
223.151	27.8133
226.526	32.4801
229.901	36.8127
233.275	33.9702
236.65	38.1429
240.025	38.588
243.4	27.7105
246.775	35.6704
250.15	28.4084
253.524	30.333
256.899	18.0078
260.274	25.9745
263.649	24.3608
267.024	21.0687
270.399	13.9794
273.773	13.4759
277.148	12.7937
280.523	9.8302
283.898	7.39697
287.273	1.78027
290.647	3.43567
294.022	2.07373
297.397	0.022095
300.772	3.58289
304.147	2.07788
307.522	6.70081
310.896	4.76843
314.271	2.21301
317.646	1.7771
321.021	0.066162
324.396	1.40234
327.77	1.63794
331.145	1.22339
334.52	2.13696
337.895	0.383667
341.27	4.2135
344.644	1.24402
348.019	1.69617
351.394	2.73682
354.769	7.83301
358.144	7.81799
361.519	15.4113
364.893	17.4962
368.268	15.235
371.643	21.1052
375.018	13.0922
378.393	7.51758
381.767	8.94226
385.142	11.069
388.517	8.65796
391.892	5.31018
395.267	8.24988
398.642	1.59021
402.016	1.84949
405.391	7.6366
408.766	13.2575
412.141	6.44116
415.516	8.61157
418.89	5.88818
422.265	3.17053
425.64	7.79333
429.015	4.71668
432.39	14.2905
435.765	12.4828
439.139	5.77051
442.514	4.86853
445.889	7.96423
449.264	3.47888
452.639	8.4115
456.014	7.62329
459.388	4.76843
462.763	5.49085
466.138	7.65491
469.513	5.95117
472.887	3.29089
476.262	12.2987
479.637	7.61255
483.012	3.52393
486.387	4.44495
489.762	14.13
493.136	7.3678
496.511	8.79529
499.886	7.22241
503.261	1.27307
506.636	10.837
510.01	6.57727
513.385	6.80261
516.76	7.63525
520.135	6.64514
523.51	0.953369
526.885	0.257935
530.259	5.27918
533.634	6.67835
537.009	13.4674
540.384	9.22693
543.759	6.72729
547.134	3.02917
550.508	8.82056
553.883	9.56702
557.258	8.94714
560.633	6.25757
564.008	9.46033
567.382	3.23413
570.757	2.11816
574.132	0.920166
577.507	4.03564
580.882	0.865112
584.256	2.65955
587.631	3.89136
591.006	6.23535
594.381	3.6731
597.756	1.61902
601.131	1.79871
604.505	5.49646
607.88	7.03686
611.255	11.8713
614.63	9.64172
618.005	12.3302
621.38	4.91992
624.754	6.63159
628.129	6.15759
631.504	6.56811
634.879	6.09375
638.254	8.34631
641.628	8.06775
645.003	5.75324
648.378	3.72101
651.753	1.59882
655.128	0.480713
658.503	3.93561
661.877	4.3125
665.252	0.509766
668.627	10.1216
672.002	3.51856
675.377	1.36981
678.751	7.31763
682.126	9.12378
685.501	6.99689
688.876	3.93585
692.251	3.61896
695.625	5.50177
699	7.49066
702.375	5.45489
705.75	4.54443
709.125	1.23535
712.5	8.54016
715.874	10.2181
719.249	6.98871
722.624	2.0354
725.999	0.912781
729.374	1.8739
732.749	8.9032
736.123	10.7621
739.498	5.35797
742.873	3.3349
746.248	2.8739
749.623	3.33874
752.997	3.60059
756.372	14.8945
759.747	2.8988
763.122	3.43219
766.497	4.01392
769.871	5.99481
773.246	4.6712
776.621	5.73907
779.996	7.29132
783.371	1.43805
786.745	4.54053
790.12	3.59753
793.495	4.49829
796.87	3.48554
800.245	6.05151
803.62	1.95087
806.994	0.293823
810.369	2.06158
813.744	2.21979
817.119	5.8446
820.494	9.55023
823.869	10.5237
827.243	5.56513
830.618	10.9941
833.993	2.15137
837.368	6.5282
840.743	7.81329
844.117	10.83
847.492	6.99463
850.867	14.8353
854.242	8.85077
857.617	5.6416
860.991	9.24805
864.366	4.88855
867.741	5.21942
871.116	6.20911
874.491	9.8288
877.866	7.15863
881.24	8.79858
884.615	3.8595
887.99	7.81274
891.365	5.849
894.74	1.77448
898.115	2.90778
901.489	1.53125
904.864	2.04736
908.239	0.577759
911.614	4.18555
914.989	5.12726
918.363	4.40039
921.738	5.23846
925.113	6.56433
928.488	8.36554
931.863	2.56274
935.237	3.81671
938.612	4.61401
941.987	8.17664
945.362	1.53619
948.737	4.49915
952.112	4.55603
955.486	5.02136
958.861	2.68109
962.236	1.49323
965.611	1.63165
968.986	1.49506
972.361	6.51617
975.735	2.71008
979.11	3.18036
982.485	1.36523
985.86	4.04785
989.235	1.04443
992.609	3.16303
995.984	0.576843
999.359	10.9143
1002.73	4.37854
1006.11	3.62195
1009.48	4.95312
1012.86	5.08173
1016.23	3.24054
1019.61	9.71344
1022.98	4.57391
1026.36	10.069
1029.73	5.82251
1033.11	7.36597
1036.48	4.48914
1039.86	3.23724
1043.23	3.49982
1046.61	2.61462
1049.98	7.60773
1053.36	3.84711
1056.73	4.86224
1060.11	2.97681
1063.48	3.1488
1066.86	8.27484
1070.23	3.44708
1073.61	5.74048
1076.98	5.15228
1080.36	3.40527
1083.73	6.13074
1087.1	5.32587
1090.48	3.26318
1093.85	1.40088
1097.23	1.11743
1100.6	0.688782
1103.98	3.62036
1107.35	8.02588
1110.73	0.970459
1114.1	2.60913
1117.48	4.21307
1120.85	2.49506
1124.23	5.48737
1127.6	0.018311
1130.98	1.74097
1134.35	6.14337
1137.73	3.11853
1141.1	6.64264
1144.48	1.74585
1147.85	2.46997
1151.23	7.88873
1154.6	7.22766
1157.97	8.10803
1161.35	3.57342
1164.72	4.65845
1168.1	4.78522
1171.47	6.00146
1174.85	4.64654
1178.22	5.38678
1181.6	6.87677
1184.97	2.75085
1188.35	0.198059
1191.72	7.36237
1195.1	10.4022
1198.47	5.04102
1201.85	4.51227
1205.22	4.79523
1208.6	6.07355
1211.97	1.13483
1215.35	2.26385
1218.72	0.921082
1222.1	4.47931
1225.47	8.15985
1228.85	7.1344
1232.22	5.37476
1235.6	9.15936
1238.97	6.68005
1242.35	5.11993
1245.72	2.93933
1249.1	2.86047
1252.47	2.73157
1255.85	0.715698
1259.22	5.49078
1262.6	2.62927
1265.97	3.10681
1269.34	1.3512
1272.72	8.16895
1276.09	2.02155
1279.47	0.907288
1282.84	5.12622
