Measurement: Raman, 780 nm, unoriented, Raman Data Processed
Mineral: Arfvedsonite
Rruff sample: R050514
Ideal chemistry: NaNa_2_(Fe^2+^_4_Fe^3+^)Si_8_O_22_(OH)_2_
Locality: unknown
Source: Frank Hawthorne
Description: Small black fragments
Measured chemistry: (Na_2.44_K_0.22_Ca_0.17_[box]_0.17_)_Σ=3_(Fe^2+^_2.55_Fe^3+^_0.94_Mg_0.80_Mn_0.55_Ti_0.09_Al_0.07_)_Σ=5_(Si_7.81_Al_0.19_)_8_O_22_((OH)_1.40_F_0.60_)_Σ=2_
Raman shift (cm-1)	intensity
114.554	0
117.929	0.313477
121.304	4.28149
124.679	4.71845
128.054	8.24329
131.428	6.80609
134.803	4.9585
138.178	10.0295
141.553	3.60675
144.928	2.90918
148.303	6.77399
151.677	9.16907
155.052	6.87671
158.427	6.48236
161.802	7.87408
165.177	6.41162
168.551	7.11529
171.926	1.19025
175.301	1.69354
178.676	0.246277
182.051	0.705688
185.425	4.29919
188.8	2.08893
192.175	2.57819
195.55	3.125
198.925	0.70813
202.299	5.87299
205.674	6.59332
209.049	1.95355
212.424	7.24658
215.799	6.01019
219.174	6.33264
222.548	4.39185
225.923	6.69385
229.298	7.42425
232.673	5.23041
236.048	3.15662
239.423	9.35095
242.797	0.41272
246.172	0.280518
249.547	6.53101
252.922	7.11462
256.297	3.0824
259.671	4.10205
263.046	8.79352
266.421	3.52069
269.796	3.73151
273.171	6.05212
276.546	5.89685
279.92	5.25226
283.295	4.07636
286.67	3.46875
290.045	3.47199
293.42	6.18939
296.794	1.224
300.169	1.16608
303.544	0.396057
306.919	1.71271
310.294	3.41321
313.668	1.15533
317.043	2.82025
320.418	2.271
323.793	1.3136
327.168	1.54199
330.543	5.3974
333.917	3.81262
337.292	4.83325
340.667	3.90802
344.042	7.11883
347.417	10.0231
350.791	9.35022
354.166	9.27893
357.541	8.35516
360.916	7.98657
364.291	10.5322
367.666	8.7276
371.04	6.1167
374.415	7.4292
377.79	4.49048
381.165	3.24207
384.54	4.19562
387.914	4.97846
391.289	5.54279
394.664	2.20819
398.039	6.73358
401.414	6.40418
404.788	5.09943
408.163	6.61169
411.538	5.19916
414.913	7.03754
418.288	7.3399
421.663	9.58984
425.037	6.72992
428.412	5.43127
431.787	6.83148
435.162	1.30811
438.537	2.55444
441.911	0.462402
445.286	4.50561
448.661	1.62231
452.036	0.004822
455.411	0.095215
458.786	2.36054
462.16	2.12647
465.535	3.10284
468.91	1.85016
472.285	4.70044
475.66	0.645264
479.034	1.97247
482.409	5.03528
485.784	1.47168
489.159	0.363892
492.534	1.33575
495.909	6.52771
499.283	3.4585
502.658	6.92059
506.033	10.8803
509.408	6.18671
512.783	7.58997
516.158	4.55939
519.532	4.11829
522.907	5.77661
526.282	6.42072
529.657	6.9975
533.032	8.12183
536.406	8.92755
539.781	7.62457
543.156	4.97064
546.531	5.66058
549.906	8.48407
553.28	3.21942
556.655	8.39246
560.03	8.21228
563.405	6.3443
566.78	2.58179
570.154	3.0238
573.529	8.21435
576.904	6.30084
580.279	4.85107
583.654	6.31274
587.029	4.88226
590.403	3.62994
593.778	1.25995
597.153	0.001892
600.528	0.000916
603.903	2.75635
607.278	4.4776
610.652	3.04468
614.027	3.5979
617.402	2.83179
620.777	2.14752
624.152	4.55548
627.526	0.217346
630.901	5.28906
634.276	3.95276
637.651	5.82257
641.026	1.81354
644.4	2.63904
647.775	4.11853
651.15	6.99896
654.525	6.25531
657.9	5.10608
661.274	5.99109
664.649	7.26648
668.024	4.63611
671.399	9.12189
674.774	8.20453
678.149	5.67584
681.523	5.42816
684.898	2.81915
688.273	2.4306
691.648	0.007568
695.023	1.37024
698.398	2.41248
701.772	3.02936
705.147	0.32959
708.522	0.916382
711.897	1.42529
715.272	2.67059
718.646	2.90906
722.021	1.27722
725.396	4.61279
728.771	1.13495
732.146	8.07294
735.52	1.27234
738.895	3.02844
742.27	11.1575
745.645	5.36615
749.02	3.34192
752.395	5.69177
755.769	2.05096
759.144	0.163086
762.519	2.36054
765.894	0.924805
769.269	0.938904
772.644	1.96747
776.018	0.641846
779.393	0.083923
782.768	3.36737
786.143	1.60785
789.518	0.945435
792.892	7.04297
796.267	5.03998
799.642	3.34387
803.017	6.75476
806.392	5.67883
809.766	3.56744
813.141	5.17181
816.516	5.62707
819.891	7.65875
823.266	4.51978
826.641	7.75348
830.015	4.09088
833.39	7.43426
836.765	10.2886
840.14	9.9682
843.515	11.2523
846.889	3.21521
850.264	9.75983
853.639	7.11011
857.014	7.97424
860.389	10.0731
863.764	10.0198
867.138	11.9861
870.513	8.01562
873.888	8.90558
877.263	5.68378
880.638	8.79883
884.013	8.06372
887.387	12.3251
890.762	5.34741
894.137	4.87799
897.512	4.21845
900.886	4.35828
904.261	1.04804
907.636	0.138489
911.011	2.40173
914.386	0.799194
917.761	0.100098
921.135	0.18396
924.51	1.92706
927.885	2.26123
931.26	1.88153
934.635	4.15106
938.01	1.58258
941.384	6.36731
944.759	7.76886
948.134	7.03449
951.509	4.84259
954.884	5.91132
958.258	2.46381
961.633	6.15393
965.008	3.90332
968.383	7.92889
971.758	4.61981
975.132	3.36334
978.507	0.177795
981.882	2.68689
985.257	2.23419
988.632	0.360535
992.006	1.84967
995.381	2.50132
998.756	0.624329
1002.13	2.09302
1005.51	2.20386
1008.88	1.604
1012.25	8.13147
1015.63	1.22101
1019	4.30035
1022.38	2.43243
1025.76	7.33643
1029.13	0.028381
1032.5	6.08008
1035.88	6.18823
1039.25	7.10443
1042.63	6.62366
1046	8.6402
1049.38	6.28033
1052.75	5.32501
1056.13	5.91718
1059.5	8.63397
1062.88	7.13117
1066.25	7.85266
1069.63	3.8963
1073	6.54468
1076.38	6.66699
1079.75	3.95196
1083.13	4.02838
1086.5	5.26856
1089.88	8.02966
1093.25	4.51764
1096.63	1.27576
1100	3.776
1103.38	2.25983
1106.75	0.456421
1110.12	5.51123
1113.5	2.63629
1116.88	1.1142
1120.25	1.19409
1123.62	2.52954
1127	3.39996
1130.37	7.96136
1133.75	2.89111
1137.12	1.12347
1140.5	6.00555
1143.87	6.91974
1147.25	5.13825
1150.62	2.33044
1154	0.588379
1157.37	4.1554
1160.75	4.99103
1164.12	1.13684
1167.5	4.18811
1170.87	7.13678
1174.25	5.48584
1177.62	4.71167
1181	5.64203
1184.37	4.82977
1187.75	3.79449
1191.12	4.78717
1194.49	4.72266
1197.87	6.09424
1201.24	4.96246
1204.62	7.28198
1207.99	5.05255
1211.37	2.88873
1214.74	4.93884
1218.12	0.07782
1221.49	1.35486
1224.87	2.99164
1228.24	2.99066
1231.62	2.9823
1234.99	6.35437
1238.37	4.9386
1241.74	4.33612
1245.12	3.15381
1248.49	6.27051
1251.87	5.92847
1255.24	1.70947
1258.62	1.09051
1261.99	2.578
1265.37	8.26184
1268.74	7.34705
1272.12	8.17883
1275.49	-0.273487
1278.87	6.5636
1282.24	5.54517
1285.62	0.062561
