Measurement: Raman, 532 nm, unoriented, Raman Data Processed
Mineral: Argentobaumhauerite
Rruff sample: R070167
Ideal chemistry: Ag_1.5_Pb_22_As_33.5_S_72_
Locality: Cerro de Pasco, Alcides Carri√≥n Province, Pasco department, Peru
Source: Michael Scott
Description: Silver metallic mass of spheroids
Raman shift (cm-1)	intensity
178.144	0
181.037	9.64624
183.93	30.5358
186.822	19.9307
189.715	37.2568
192.608	7.3042
195.5	57.1797
198.393	46.1812
201.286	76.1246
204.179	52.9902
207.071	74.8331
209.964	80.6183
212.857	65.5228
215.749	64.1044
218.642	126.438
221.535	83.9243
224.428	88.5443
227.32	76.8662
230.213	76.5837
233.106	62.5839
235.998	82.7327
238.891	49.1481
241.784	56.6962
244.676	41.3859
247.569	18.947
250.462	27.6466
253.355	5.38562
256.247	5.18115
259.14	1.28772
262.033	1.95679
264.925	18.2545
267.818	13.8257
270.711	10.5259
273.603	6.79382
276.496	21.578
279.389	34.6249
282.281	58.8319
285.174	62.5803
288.067	94.9438
290.959	69.4375
293.852	120.917
296.745	123.27
299.638	157.354
302.53	147.322
305.423	160.017
308.316	153.073
311.208	178.925
314.101	189.731
316.994	160.905
319.887	208.25
322.779	205.215
325.672	159.566
328.565	203.555
331.457	163.688
334.35	158.858
337.243	175.643
340.135	199.741
343.028	186.816
345.921	194.121
348.813	202.526
351.706	227.592
354.599	253.458
357.492	260.637
360.384	275.04
363.277	264.528
366.17	285.704
369.062	289.733
371.955	262.933
374.848	239.333
377.74	208.72
380.633	159.425
383.526	158.988
386.418	126.529
389.311	78.1192
392.204	48.595
395.097	30.066
397.989	18.9968
400.882	16.6935
403.775	16.0021
406.667	17.8361
409.56	20.1486
412.453	2.54364
415.346	8.35077
418.238	15.7153
421.131	30.9623
424.024	20.6902
426.916	7.39258
429.809	11.1504
432.702	38.3528
435.594	30.3794
438.487	23.2421
441.38	39.3632
444.272	49.41
447.165	59.4139
450.058	45.871
452.951	31.6078
455.843	18.9395
458.736	53.0272
461.629	1.74066
464.521	59.7374
467.414	41.4859
470.307	49.3953
473.2	33.6345
476.092	37.3544
478.985	25.2617
481.878	50.7371
484.77	46.5533
487.663	46.9945
490.556	42.5663
493.448	34.0152
496.341	14.7529
499.234	37.8924
502.127	54.1145
505.019	36.7178
507.912	30.0934
510.805	10.2815
513.697	23.9489
516.59	34.2467
519.483	9.36145
522.375	29.0729
525.268	1.02148
528.161	0.098022
531.053	21.0439
533.946	3.55682
536.839	8.91901
539.731	28.0687
542.624	12.1858
545.517	16.9492
548.41	15.369
551.302	0.829041
554.195	17.0551
557.088	21.5287
559.98	8.14337
562.873	9.96863
565.766	16.3675
568.659	19.9764
571.551	13.7136
574.444	13.1904
577.337	3.67957
580.229	39.3793
583.122	6.04889
586.015	40.6785
588.907	4.18536
591.8	23.8683
594.693	46.9611
597.585	29.1724
600.478	10.5203
603.371	36.9125
606.264	15.5866
609.156	2.86292
612.049	23.5803
614.942	45.7457
617.834	2.13342
620.727	18.9443
623.62	4.39356
626.513	28.2266
629.405	10.9984
632.298	32.3686
635.191	17.9553
638.083	11.803
640.976	20.0959
643.869	35.8389
646.761	31.3538
649.654	10.6738
652.547	30.259
655.439	44.8628
658.332	32.6027
661.225	15.2416
664.117	61.831
667.01	24.0514
669.903	36.9105
672.796	11.0724
675.688	12.6042
678.581	18.3651
681.474	5.02014
684.366	18.2869
687.259	12.5702
690.152	7.48779
693.044	3.59723
695.937	13.4252
698.83	24.4392
701.723	41.0102
704.615	13.2974
707.508	18.7129
710.401	61.131
713.293	26.3713
716.186	30.2952
719.079	22.0392
721.971	17.8489
724.864	12.8331
727.757	36.4991
730.649	27.9938
733.542	24.0981
736.435	20.2469
739.328	24.3613
742.22	28.7206
745.113	22.6012
748.006	49.0295
750.898	19.1277
753.791	30.5277
756.684	29.9295
759.577	29.6634
762.469	8.58557
765.362	0.084167
768.255	27.0228
771.147	35.5635
774.04	32.1437
776.933	33.8225
779.825	8.66174
782.718	30.6491
785.611	17.9352
788.504	20.5504
791.396	8.69653
794.289	22.4183
797.182	11.8421
800.074	46.0577
802.967	24.7323
805.86	5.02789
808.752	15.6297
811.645	37.6003
814.538	27.7906
817.431	0.229492
820.323	32.6923
823.216	6.80347
826.109	18.8387
829.001	27.7856
831.894	25.2688
834.787	17.6351
837.679	8.44745
840.572	1.86536
843.465	18.4371
846.357	16.7868
849.25	5.40186
852.143	3.19324
855.036	21.0033
857.928	8.78357
860.821	39.9775
863.714	11.014
866.606	21.3551
869.499	20.6512
872.392	20.6741
875.284	2.36182
878.177	24.4002
881.07	5.75696
883.962	7.01819
886.855	7.8346
889.748	21.4119
892.641	18.7947
895.533	23.1932
898.426	26.5211
901.319	19.7654
904.211	28.4968
907.104	29.6602
909.997	44.9705
912.889	16.2311
915.782	10.3167
918.675	1.95612
921.568	29.6185
924.46	23.5278
927.353	23.5375
930.246	29.2006
933.138	17.4597
936.031	19.6075
938.924	7.98792
941.817	15.5628
944.709	74.722
947.602	13.6417
950.495	25.3611
953.387	10.4359
956.28	23.6148
959.173	21.6431
962.065	31.593
964.958	31.5262
967.851	24.7355
970.744	0.866394
973.636	14.6879
976.529	13.1251
979.422	21.265
982.314	19.5262
985.207	44.1328
988.1	19.0441
990.992	30.1254
993.885	16.7717
996.778	20.831
999.67	27.8541
1002.56	4.51044
1005.46	34.5905
1008.35	24.8292
1011.24	17.8123
1014.13	36.2457
1017.03	15.3602
1019.92	29.5128
1022.81	28.0032
1025.7	27.5406
1028.6	28.3964
1031.49	28.2101
1034.38	29.9595
1037.28	14.7788
1040.17	42.4788
1043.06	35.3325
1045.95	18.5333
1048.85	19.5775
1051.74	21.1659
1054.63	7.52838
1057.52	29.0986
1060.42	45.3812
1063.31	7.80933
1066.2	15.6862
1069.1	20.3697
1071.99	38.5106
1074.88	10.1664
1077.77	18.6042
1080.67	21.0139
1083.56	11.8655
1086.45	38.3068
1089.34	20.9156
1092.24	18.1063
1095.13	29.0045
1098.02	34.4289
1100.91	1.68921
1103.81	37.52
1106.7	27.0187
1109.59	4.26392
1112.49	14.8827
1115.38	6.71295
1118.27	1.21344
1121.16	7.25726
1124.06	7.33276
1126.95	17.1919
1129.84	24.1011
1132.73	14.511
1135.63	24.8672
1138.52	12.5059
1141.41	24.4404
1144.31	31.4222
1147.2	33.6108
1150.09	13.1717
1152.98	18.6451
1155.88	4.76129
1158.77	6.51587
1161.66	15.8459
1164.55	36.1589
1167.45	3.44958
1170.34	28.7398
1173.23	6.8714
1176.12	17.4023
1179.02	50.0483
1181.91	42.4752
1184.8	26.0488
1187.7	32.7077
1190.59	17.9564
1193.48	1.99231
1196.37	1.59479
1199.27	42.772
1202.16	29.9987
1205.05	16.139
1207.94	5.74603
1210.84	36.1996
1213.73	22.1721
1216.62	6.84802
1219.52	27.1935
1222.41	26.5128
1225.3	48.0481
1228.19	24.5441
1231.09	43.2226
1233.98	9.35535
1236.87	1.62347
1239.76	42.8191
1242.66	24.1929
1245.55	33.4628
1248.44	0.647339
1251.34	23.7339
1254.23	18.9504
1257.12	12.3419
1260.01	28.936
1262.91	15.8926
1265.8	13.2589
1268.69	34.6508
1271.58	15.4509
1274.48	8.74524
1277.37	24.2701
1280.26	2.80212
1283.15	3.00208
1286.05	38.7242
1288.94	17.1101
1291.83	23.7414
