Measurement: Raman, 780 nm, unoriented, Raman Data Processed
Mineral: Argentopyrite
Rruff sample: R090027
Ideal chemistry: Ag^1+^Fe_2_S^2-^_3_
Locality: Jáchymov, Ostrov, Krušné Hory Mts, Karlovy Vary Region, Bohemia, Czech Republic
Source: Mark N. Feinglos
Description: Bronze and blue tarnished rectangular prism.  Co-type specimen. Twinned.
Measured chemistry: Ag_0.97_Fe_1.99_S_3_
Raman shift (cm-1)	intensity
141.071	0
143.963	0.011421
146.856	2.79443
149.749	2.86753
152.642	3.66095
155.534	2.28122
158.427	2.98836
161.32	7.01773
164.212	5.95968
167.105	4.6875
169.998	6.73575
172.89	5.33275
175.783	2.91151
178.676	3.61573
181.569	1.14639
184.461	1.05879
187.354	2.39557
190.247	2.31293
193.139	0.737564
196.032	1.6468
198.925	0.978851
201.817	0.414368
204.71	0.627098
207.603	3.33217
210.495	4.99102
213.388	2.5812
216.281	6.12811
219.174	6.04831
222.066	5.69114
224.959	11.067
227.852	5.57051
230.744	12.0765
233.637	9.15131
236.53	7.64364
239.423	10.7767
242.315	9.48235
245.208	12.7224
248.101	11.1722
250.993	10.2708
253.886	10.0373
256.779	7.56503
259.671	4.18884
262.564	4.26018
265.457	2.22788
268.349	2.68495
271.242	0.179016
274.135	2.60113
277.028	2.16771
279.92	4.33031
282.813	8.35075
285.706	8.40888
288.598	12.19
291.491	16.4178
294.384	19.0205
297.276	16.5609
300.169	16.8656
303.062	15.2092
305.955	13.8534
308.847	11.2769
311.74	9.92396
314.633	13.1892
317.525	10.5488
320.418	16.7949
323.311	14.007
326.204	13.3831
329.096	11.0463
331.989	14.0946
334.882	12.9094
337.774	8.71744
340.667	6.46298
343.56	3.45038
346.452	4.54355
349.345	2.18649
352.238	2.52867
355.13	6.81305
358.023	5.78901
360.916	8.87937
363.809	11.8656
366.701	17.1225
369.594	15.7665
372.487	18.1204
375.379	15.2493
378.272	16.5566
381.165	13.9258
384.058	8.64032
386.95	8.97114
389.843	2.93869
392.736	2.46156
395.628	0.415794
398.521	1.32534
401.414	1.16538
404.306	1.15685
407.199	0.357067
410.092	0.935787
412.985	0.746391
415.877	0.75333
418.77	2.2257
421.663	1.65913
424.555	2.8908
427.448	1.21572
430.341	0.090294
433.233	4.20669
436.126	1.037
439.019	0.535847
441.911	1.02974
444.804	3.68343
447.697	4.20287
450.59	4.3811
453.482	4.69238
456.375	3.34448
459.268	3.65826
462.16	3.1818
465.053	4.51975
467.946	5.02893
470.839	5.09063
473.731	1.9392
476.624	3.49223
479.517	4.16021
482.409	3.9932
485.302	4.02708
488.195	1.20005
491.087	5.05816
493.98	0.990295
496.873	5.9728
499.765	0.984188
502.658	5.04315
505.551	2.27465
508.444	1.76899
511.336	0.454002
514.229	0.325455
517.122	3.79248
520.014	2.1614
522.907	0.044155
525.8	0.963825
528.692	2.67945
531.585	2.30291
534.478	2.30706
537.371	0.985336
540.263	3.20867
543.156	1.5091
546.049	4.36377
548.941	0.259487
551.834	4.47206
554.727	0.041428
557.62	3.52465
560.512	2.58922
563.405	4.36705
566.298	4.09631
569.19	3.04956
572.083	4.23177
574.976	2.35351
577.868	0.759237
580.761	0.258924
583.654	1.58993
586.546	1.33327
589.439	0.884281
592.332	2.57519
595.225	1.63614
598.117	2.76684
601.01	4.0099
603.903	2.07835
606.795	0.064983
609.688	1.27363
612.581	1.88317
615.473	3.21859
618.366	2.76513
621.259	3.30562
624.152	2.62104
627.044	1.86327
629.937	3.37395
632.83	2.62823
635.722	3.97475
638.615	2.70285
641.508	2.6681
644.4	3.90885
647.293	4.11307
650.186	1.36843
653.079	3.97654
655.971	1.341
658.864	3.52824
661.757	2.38308
664.649	3.79033
667.542	3.77722
670.435	1.30195
673.327	2.60469
676.22	2.2748
679.113	0.280952
682.006	0.021381
684.898	2.42133
687.791	2.87044
690.684	2.38953
693.576	3.86255
696.469	2.45122
699.362	2.81763
702.255	2.26746
705.147	0.154034
708.04	4.97809
710.933	0.524887
713.825	4.45035
716.718	0.201077
719.611	1.76557
722.503	1.66091
725.396	0.491402
728.289	0.660984
731.182	1.67128
734.074	1.26914
736.967	0.393711
739.86	1.92435
742.752	2.33742
745.645	2.92561
748.538	1.57793
751.43	1.77079
754.323	1.51379
757.216	0.035793
760.109	3.18044
763.001	3.01172
765.894	4.41734
768.787	0.869427
771.679	2.38521
774.572	5.01689
777.465	1.83865
780.357	4.75612
783.25	3.23278
786.143	4.76129
789.035	1.35622
791.928	3.97165
794.821	0.922962
797.714	6.0271
800.606	4.34031
803.499	2.21765
806.392	3.57423
809.284	3.3073
812.177	2.24389
815.07	2.65789
817.962	2.3952
820.855	3.1026
823.748	1.1808
826.641	4.92691
829.533	5.84213
832.426	5.41479
835.319	6.48747
838.211	3.81472
841.104	2.89267
843.997	6.9028
846.889	8.69315
849.782	4.26874
852.675	4.23791
855.568	4.71251
858.46	3.23766
861.353	2.54824
864.246	3.10995
867.138	5.24747
870.031	5.12525
872.924	3.93418
875.817	4.14467
878.709	3.92144
881.602	2.03319
884.495	3.07381
887.387	0.808739
890.28	1.52026
893.173	0.959675
896.065	2.95374
898.958	1.8712
901.851	3.13948
904.744	1.47523
907.636	0.417549
910.529	0.262827
913.422	1.49293
916.314	0.041121
919.207	2.23519
922.1	0.804989
924.992	0.234369
927.885	0.1985
930.778	0.559273
933.67	2.22704
936.563	1.41683
939.456	0.14827
942.348	2.81733
945.241	2.06083
948.134	0.801136
951.027	1.64829
953.919	2.66044
956.812	1.22007
959.705	1.81968
962.597	5.52386
965.49	2.93343
968.383	1.88498
971.275	1.17199
974.168	2.97881
977.061	2.08301
979.954	1.10086
982.846	3.84168
985.739	3.3954
988.632	1.25676
991.524	0.728674
994.417	1.19283
997.31	3.19253
1000.2	2.82745
1003.1	3.16847
1005.99	3.1686
1008.88	1.35018
1011.77	1.92108
1014.67	1.64654
1017.56	0.345686
1020.45	2.90752
1023.34	2.62207
1026.24	5.05189
1029.13	3.03447
1032.02	2.36557
1034.91	4.59073
1037.81	1.01535
1040.7	4.57494
1043.59	4.18894
1046.49	2.06927
1049.38	2.90711
1052.27	2.07625
1055.16	3.2073
1058.06	2.13468
1060.95	2.61266
1063.84	3.10377
1066.73	4.4284
1069.63	2.11322
1072.52	1.08823
1075.41	3.89898
1078.31	2.6307
1081.2	3.22582
1084.09	2.15595
1086.98	3.40118
1089.88	1.61489
1092.77	3.50329
1095.66	2.10573
1098.55	1.4299
1101.45	2.56015
1104.34	2.76476
1107.23	3.30155
1110.12	2.64161
1113.02	2.97902
1115.91	0.119284
1118.8	1.21164
1121.7	2.53075
1124.59	2.55377
1127.48	2.43822
1130.37	0.916986
1133.27	3.5481
1136.16	1.98022
1139.05	0.323521
1141.94	3.89599
1144.84	3.55254
1147.73	1.18636
1150.62	2.20713
1153.52	4.63787
1156.41	3.47912
1159.3	3.67716
1162.19	1.16752
1165.09	3.29121
1167.98	2.44091
1170.87	4.00517
1173.77	0.386526
1176.66	2.51493
1179.55	0.401731
1182.44	4.58944
1185.34	1.02905
1188.23	0.848736
1191.12	3.90094
1194.01	2.37856
1196.91	5.2408
1199.8	3.06339
1202.69	2.27496
1205.58	2.15176
1208.48	0.905657
1211.37	1.99591
1214.26	1.03043
1217.15	1.45187
1220.05	2.25704
1222.94	3.60512
1225.83	5.02685
1228.73	0.88942
1231.62	1.96833
1234.51	2.04
1237.4	5.17218
1240.3	3.27668
1243.19	3.65296
1246.08	1.46177
1248.97	1.41366
1251.87	1.63064
1254.76	3.07686
1257.65	4.90962
1260.55	2.66399
1263.44	4.10741
1266.33	2.1442
1269.22	3.90502
1272.12	1.08663
1275.01	1.88327
1277.9	6.00364
1280.79	3.71598
1283.69	2.61104
