Measurement: Raman, 532 nm, unoriented, Raman Data Processed
Mineral: Argyrodite
Rruff sample: R050437
Ideal chemistry: Ag^1+^_8_Ge^4+^S^2-^_6_
Locality: Himmelsfurst mine, Freiberg, Saxony, Germany
Source: University of Arizona Mineral Museum
Description: Steel gray with a red hint, mass of poorly formed crystals, associated with pyrargyrite.
Measured chemistry: Ag_8.00_Ge_1.00_S_6.00_
Raman shift (cm-1)	intensity
200.448	0
203.341	3.76457
206.234	4.41002
209.126	3.59554
212.019	3.83665
214.912	2.41124
217.804	3.50972
220.697	4.37282
223.59	3.21703
226.483	3.27286
229.375	2.52244
232.268	3.29614
235.161	0.758226
238.053	3.06888
240.946	1.19146
243.839	2.13606
246.732	2.16683
249.624	2.66164
252.517	1.89824
255.41	0.342054
258.302	2.12049
261.195	4.21676
264.088	0.893957
266.98	0.269696
269.873	0.193637
272.766	2.48973
275.659	4.18671
278.551	0.955178
281.444	1.19314
284.337	1.19299
287.229	1.72062
290.122	0.120713
293.015	1.96205
295.907	1.04225
298.8	2.44431
301.693	0.19047
304.586	0.385784
307.478	0.938773
310.371	1.4635
313.264	3.18457
316.156	3.74203
319.049	1.51975
321.942	2.45876
324.834	3.69407
327.727	1.50098
330.62	1.87764
333.512	3.80941
336.405	3.49479
339.298	3.79671
342.191	4.60376
345.083	3.39505
347.976	3.10871
350.869	1.72071
353.761	1.7214
356.654	0.223042
359.547	1.2241
362.44	2.33092
365.332	0.886218
368.225	0.749147
371.118	1.11583
374.01	1.70631
376.903	1.62558
379.796	1.96689
382.688	2.9181
385.581	3.15599
388.474	0.999046
391.366	2.07369
394.259	2.32093
397.152	1.81367
400.045	2.08352
402.937	1.67293
405.83	2.80464
408.723	3.33586
411.615	0.550506
414.508	2.7697
417.401	1.00219
420.293	0.161483
423.186	2.84151
426.079	0.121467
428.972	0.191796
431.864	0.21876
434.757	0.768778
437.65	1.47113
440.542	0.116828
443.435	1.38929
446.328	1.24112
449.221	0.228109
452.113	0.702342
455.006	2.60238
457.899	3.65203
460.791	3.38193
463.684	3.81347
466.577	2.7344
469.469	5.51073
472.362	2.56627
475.255	1.64717
478.147	2.90429
481.04	0.95628
483.933	0.687736
486.826	1.57483
489.718	2.17905
492.611	2.13054
495.504	3.3112
498.396	1.40589
501.289	1.14208
504.182	1.31763
507.075	1.42531
509.967	0.78895
512.86	0.292472
515.753	0.617057
518.645	0.726783
521.538	1.9496
524.431	1.19786
527.323	2.4356
530.216	2.15837
533.109	1.35623
536.001	1.17741
538.894	1.73934
541.787	0.693014
544.68	2.20852
547.572	2.76275
550.465	2.66374
553.358	1.14394
556.25	1.66679
559.143	0.037954
562.036	1.79631
564.928	1.77664
567.821	2.41653
570.714	1.03939
573.607	0.68949
576.499	1.63333
579.392	2.01614
582.285	1.14802
585.177	2.82735
588.07	1.46997
590.963	2.0381
593.856	2.16945
596.748	2.25904
599.641	1.76414
602.534	1.36628
605.426	2.55203
608.319	1.18339
611.212	1.31002
614.104	1.79272
616.997	2.13405
619.89	1.76151
622.783	2.13173
625.675	0.21092
628.568	1.39301
631.461	1.24999
634.353	1.02897
637.246	2.83739
640.139	1.75297
643.031	0.985639
645.924	2.2241
648.817	1.43968
651.71	1.94823
654.602	2.76372
657.495	0.605376
660.388	0.452678
663.28	2.46009
666.173	0.97277
669.066	1.16594
671.958	0.509844
674.851	0.494511
677.744	1.3749
680.636	2.27918
683.529	2.66481
686.422	2.23671
689.315	2.02883
692.207	2.76179
695.1	1.74726
697.993	1.74468
700.885	0.349177
703.778	2.24172
706.671	0.165051
709.563	1.56394
712.456	1.15124
715.349	0.222524
718.242	2.75152
721.134	1.47011
724.027	0.25685
726.92	0.579937
729.812	1.259
732.705	2.51855
735.598	0.097524
738.49	1.79811
741.383	2.90428
744.276	0.51254
747.169	1.97226
750.061	0.591659
752.954	1.74969
755.847	0.987763
758.739	3.37742
761.632	1.852
764.525	1.60781
767.418	2.66051
770.31	0.497617
773.203	0.262215
776.096	1.17928
778.988	3.1128
781.881	0.780756
784.774	1.03118
787.666	1.97344
790.559	2.93534
793.452	1.22975
796.345	2.81891
799.237	1.06489
802.13	0.485211
805.023	1.06901
807.915	1.47628
810.808	0.571059
813.701	1.61738
816.593	2.27193
819.486	3.4361
822.379	1.47684
825.271	2.7024
828.164	2.31245
831.057	2.03671
833.95	2.54212
836.842	3.0132
839.735	1.11482
842.628	2.46361
845.52	4.45131
848.413	1.75376
851.306	2.10623
854.198	2.16538
857.091	2.72151
859.984	1.57252
862.877	0.355441
865.769	2.32226
868.662	1.22815
871.555	0.73965
874.447	2.0332
877.34	2.47016
880.233	3.38614
883.125	3.23876
886.018	1.21232
888.911	2.66731
891.804	2.6128
894.696	2.09895
897.589	2.45945
900.482	0.99443
903.374	0.26035
906.267	1.80049
909.16	1.45967
912.053	1.31461
914.945	0.660684
917.838	3.50401
920.731	0.539478
923.623	0.748394
926.516	1.86818
929.409	1.75061
932.301	2.62128
935.194	0.078597
938.087	0.158276
940.98	0.854721
943.872	0.167549
946.765	1.17251
949.658	0.075077
952.55	1.39184
955.443	1.8468
958.336	1.34336
961.228	2.11068
964.121	2.29963
967.014	2.32702
969.907	2.69867
972.799	0.352414
975.692	0.477533
978.585	3.79758
981.477	2.83059
984.37	2.11941
987.263	1.89724
990.155	0.079501
993.048	2.01161
995.941	1.91597
998.833	0.694896
1001.73	0.112698
1004.62	0.850543
1007.51	1.49717
1010.4	1.25276
1013.3	1.41732
1016.19	2.29331
1019.08	2.44049
1021.98	0.132901
1024.87	0.308568
1027.76	1.08075
1030.65	1.73741
1033.55	1.82362
1036.44	1.93055
1039.33	0.404707
1042.22	1.13523
1045.12	2.34702
1048.01	1.78524
1050.9	0.954567
1053.8	0.980319
1056.69	1.58532
1059.58	0.635564
1062.47	1.66758
1065.37	2.88158
1068.26	1.45583
1071.15	1.18002
1074.04	1.49567
1076.94	1.92634
1079.83	2.07769
1082.72	1.5891
1085.62	2.25848
1088.51	0.984399
1091.4	0.645079
1094.29	2.66999
1097.18	1.3734
1100.08	1.91094
1102.97	1.46641
1105.86	0.889503
1108.76	2.25061
1111.65	1.68575
1114.54	1.42544
1117.43	2.11219
1120.33	0.595805
1123.22	1.19773
1126.11	1.98559
1129.01	2.37874
1131.9	0.228315
1134.79	1.1696
1137.68	0.273888
1140.58	0.581954
1143.47	1.25599
1146.36	1.85584
1149.25	1.93715
1152.15	2.21751
1155.04	0.197141
1157.93	0.418649
1160.83	1.5704
1163.72	2.056
1166.61	0.902447
1169.5	0.962329
1172.4	2.39499
1175.29	0.770312
1178.18	0.77824
1181.07	1.48871
1183.97	2.7347
1186.86	0.964666
1189.75	1.22358
1192.64	2.47411
1195.54	1.5405
1198.43	0.435067
1201.32	1.67047
1204.21	1.88854
1207.11	0.577799
1210	2.93373
1212.89	1.85139
1215.79	0.299317
1218.68	2.68778
1221.57	0.743333
1224.46	1.74411
1227.36	4.04739
1230.25	0.648776
1233.14	1.50342
1236.04	0.76773
1238.93	2.34351
1241.82	1.93546
1244.71	1.90013
1247.61	0.556183
1250.5	1.84485
1253.39	0.834419
1256.28	2.50307
1259.18	3.1808
1262.07	3.26257
1264.96	2.45488
1267.86	1.99244
1270.75	0.220723
1273.64	1.2956
1276.53	1.0177
1279.42	3.4929
1282.32	0.999789
1285.21	2.54132
1288.1	2.00103
1291	0.226279
1293.89	2.03405
1296.78	0.581863
1299.67	3.46878
1302.57	0.112694
