Measurement: Raman, 785 nm, unoriented, Raman Data Processed
Mineral: Argyrodite
Rruff sample: R050437
Ideal chemistry: Ag^1+^_8_Ge^4+^S^2-^_6_
Locality: Himmelsfurst mine, Freiberg, Saxony, Germany
Source: University of Arizona Mineral Museum
Description: Steel gray with a red hint, mass of poorly formed crystals, associated with pyrargyrite.
Measured chemistry: Ag_8.00_Ge_1.00_S_6.00_
Raman shift (cm-1)	intensity
197.07	0
199.963	50.132
202.855	11.372
205.748	47.146
208.641	3.658
211.533	18.336
214.426	47.19
217.319	24.438
220.212	63.363
223.104	6.669
225.997	13.427
228.89	45.584
231.782	40.721
234.675	51.726
237.568	52.279
240.46	34.781
243.353	55.422
246.246	40.309
249.139	34.312
252.031	22.597
254.924	48.368
257.817	32.788
260.709	33.331
263.602	46.141
266.495	28.363
269.387	12.949
272.28	13.702
275.173	22.296
278.065	72.091
280.958	10.006
283.851	9.997
286.744	8.576
289.636	5.16
292.529	5.234
295.422	9.881
298.314	8.667
301.207	18.555
304.1	32.216
306.992	4.249
309.885	5.555
312.778	45.003
315.671	28.275
318.563	38.153
321.456	62.11
324.349	74.252
327.241	76.919
330.134	59.78
333.027	73.268
335.919	51.731
338.812	94.268
341.705	76.854
344.598	124.074
347.49	110.432
350.383	154.778
353.276	170.854
356.168	120.17
359.061	134.026
361.954	121.542
364.847	175.071
367.739	161.21
370.632	166.135
373.525	186.973
376.417	152.72
379.31	103.725
382.203	120.83
385.095	113.924
387.988	107.453
390.881	101.687
393.774	90.051
396.666	70.116
399.559	57.53
402.452	42.981
405.344	40.368
408.237	62.66
411.13	50.565
414.022	40.166
416.915	40.776
419.808	31.699
422.701	7.179
425.593	26.956
428.486	42.848
431.379	14.559
434.271	41.48
437.164	39.334
440.057	52.184
442.949	36.101
445.842	19.597
448.735	7.509
451.628	7.354
454.52	8.732
457.413	14.771
460.306	27.507
463.198	5.563
466.091	29.139
468.984	25.839
471.876	24.917
474.769	39.59
477.662	37.171
480.555	69.783
483.447	32.417
486.34	17.782
489.233	50.039
492.125	45.749
495.018	8.913
497.911	32.488
500.803	0.003
503.696	68.505
506.589	42.958
509.482	22.079
512.374	7.13
515.267	35.069
518.16	37.262
521.052	30.681
523.945	57.152
526.838	41.861
529.731	22.739
532.623	36.642
535.516	15.729
538.409	27.328
541.301	61.82
544.194	18.787
547.087	46.347
549.979	14.892
552.872	23.191
555.765	20.384
558.657	15.439
561.55	60.658
564.443	29.684
567.336	28.171
570.228	35.599
573.121	33.276
576.014	8.326
578.906	12.432
581.799	20.623
584.692	13.52
587.584	39.978
590.477	41.329
593.37	21.253
596.263	30.916
599.155	26.733
602.048	6.47
604.941	40.997
607.833	37.159
610.726	13.621
613.619	8.658
616.511	8.3
619.404	51.134
622.297	43.157
625.19	46.309
628.082	57.123
630.975	9.881
633.868	41.834
636.76	35.924
639.653	19.026
642.546	9.953
645.438	32.55
648.331	8.767
651.224	54.452
654.117	26.299
657.009	34.48
659.902	14.206
662.795	8.091
665.687	39.748
668.58	40.449
671.473	49.997
674.365	17.313
677.258	10.885
680.151	18.351
683.044	32.473
685.936	24.157
688.829	42.78
691.722	54.997
694.614	56.929
697.507	56.066
700.4	30.151
703.292	37.055
706.185	44.545
709.078	32.883
711.971	36.79
714.863	27.184
717.756	48.523
720.649	1.354
723.541	37.72
726.434	27.114
729.327	2.461
732.219	9.818
735.112	6.251
738.005	55.678
740.898	24.997
743.79	13.421
746.683	38.369
749.576	23.464
752.468	15.272
755.361	36.323
758.254	53.699
761.146	70.581
764.039	36.783
766.932	53.863
769.825	43.718
772.717	79.141
775.61	19.588
778.503	4.898
781.395	13.635
784.288	29.637
787.181	46.575
790.073	46.643
792.966	9.358
795.859	27.315
798.752	11.63
801.644	25.727
804.537	55.517
807.43	48.192
810.322	36.658
813.215	42.423
816.108	33.927
819	28.815
821.893	10.325
824.786	38.893
827.679	9.203
830.571	48.591
833.464	31.219
836.357	16.178
839.25	52.789
842.142	24.688
845.035	10.886
847.928	19.376
850.82	42.651
853.713	21.472
856.606	37.789
859.498	37.443
862.391	3.521
865.284	1.734
868.177	34.486
871.069	13.129
873.962	30.06
876.855	19.81
879.747	20.213
882.64	31.665
885.533	3.178
888.425	38.433
891.318	46.146
894.211	16.623
897.104	4.999
899.996	19.929
902.889	35.392
905.782	3.958
908.674	28.646
911.567	10.124
914.46	23.059
917.352	34.864
920.245	47.109
923.138	30.025
926.031	16.221
928.923	28.808
931.816	6.736
934.709	29.924
937.601	25.56
940.494	21.864
943.387	47.006
946.279	32.792
949.172	11.638
952.065	13.549
954.958	9.427
957.85	35.65
960.743	0.189
963.636	29.43
966.528	0.758
969.421	38.354
972.314	28.115
975.206	40.469
978.099	14.178
980.992	33.29
983.885	72.239
986.777	37.1
989.67	11.011
992.563	3.74
995.455	13.786
998.348	33.921
1001.24	38.438
1004.13	12.987
1007.03	30.852
1009.92	47.305
1012.81	29.543
1015.7	8.864
1018.6	16.071
1021.49	23.497
1024.38	12.865
1027.28	45.24
1030.17	10.85
1033.06	28.75
1035.95	13.988
1038.85	27.371
1041.74	24.075
1044.63	41.476
1047.52	41.245
1050.42	48.544
1053.31	35.789
1056.2	28.355
1059.1	30.772
1061.99	41.963
1064.88	23.659
1067.77	25.307
1070.67	33.605
1073.56	34.767
1076.45	20.027
1079.34	21.158
1082.24	24.96
1085.13	43.284
1088.02	41.511
1090.91	37.316
1093.81	9.675
1096.7	25.54
1099.59	25.403
1102.48	5.593
1105.38	1.597
1108.27	19.266
1111.16	35.34
1114.06	49.981
1116.95	33.251
1119.84	9.562
1122.73	34.715
1125.63	23.525
1128.52	38.277
1131.41	23.834
1134.31	36.347
1137.2	32.345
1140.09	49.442
1142.98	38.492
1145.88	28.381
1148.77	31.608
1151.66	28.213
1154.55	37.404
1157.45	55.823
1160.34	43.506
1163.23	31.012
1166.12	33.375
1169.02	11.025
1171.91	28.699
1174.8	3.508
1177.69	29.792
1180.59	26.916
1183.48	0.789
1186.37	4.182
1189.27	26.704
1192.16	14.941
1195.05	31.311
1197.94	18.11
1200.84	25.209
1203.73	2.03
1206.62	26.772
1209.52	14.958
1212.41	8.014
1215.3	29.274
1218.19	36.511
1221.09	22.409
1223.98	24.517
1226.87	32.579
1229.76	42.246
1232.66	48.01
1235.55	50.24
1238.44	52.065
1241.34	75.549
1244.23	12.092
1247.12	37.597
1250.01	73.972
1252.91	38.978
1255.8	2.709
1258.69	45.156
1261.58	46.449
1264.48	28.547
1267.37	43.915
1270.26	8.06
1273.15	2.555
