Measurement: Raman, 780 nm, unoriented, Raman Data Processed
Mineral: Arisite-(La)
Rruff sample: R120051
Ideal chemistry: NaLa_2_(CO_3_)_2_[(CO_3_)_1-x_F_2x_]F
Locality: Aris quarry, near Windhoek, Namibia
Source: William W. Pinch
Description: Pale pink hexagonal tabular crystal, associated with tuperssuatsiaite, and transparent platy polylithionite
Raman shift (cm-1)	intensity
94.0141	9406.98
97.3889	9599.91
100.764	9523.43
104.138	9692.9
107.513	9993.09
110.888	10358.8
114.263	10808.5
117.638	11198
121.013	11700.8
124.388	12171
127.762	12705.7
131.137	13337.3
134.512	13944.1
137.887	14847.2
141.262	15842.6
144.636	16790.6
148.011	18096.2
151.386	19606.3
154.761	21336.1
158.136	22855.8
161.51	24056
164.885	25213.2
168.26	26376.6
171.635	27374.9
175.01	28217.8
178.385	29026.4
181.759	29682.2
185.134	30640.5
188.509	31755.4
191.884	33369.7
195.259	35201.5
198.633	37305.8
202.008	39431.5
205.383	41942.2
208.758	44025.4
212.133	46309.4
215.507	48379.1
218.882	50171.6
222.257	52383.9
225.632	54314.8
229.007	56929.7
232.382	59725.4
235.756	62805
239.131	66347.7
242.506	69177.9
245.881	72177.8
249.256	75283
252.631	77366
256.005	79404.7
259.38	81125.9
262.755	82352.1
266.13	82244.6
269.505	81542.9
272.879	79801
276.254	77522.2
279.629	74800.1
283.004	71579.3
286.379	67667.5
289.753	63817.5
293.128	59783.9
296.503	56128.2
299.878	52907.1
303.253	49960.2
306.628	47607.4
310.002	45642.8
313.377	43770.5
316.752	42557.2
320.127	41084.4
323.502	39942.9
326.877	39012.3
330.251	38151.2
333.626	37428.9
337.001	37115.2
340.376	36449.6
343.75	35931.3
347.125	35568.9
350.5	35273.9
353.875	35159.3
357.25	35117.7
360.625	34699.2
364	34444.6
367.374	34395.1
370.749	34529.2
374.124	33931.1
377.499	33809.4
380.873	33648.4
384.248	33736.8
387.623	33586.1
390.998	33494.6
394.373	33805.8
397.748	33851.1
401.122	34091.3
404.497	34224.4
407.872	34583.1
411.247	34789.7
414.622	35400.8
417.997	35887.1
421.371	36367.6
424.746	36725.5
428.121	36897.8
431.496	36872.5
434.871	36793.8
438.245	36582.8
441.62	36121.9
444.995	35907.7
448.37	35260.6
451.745	34886.4
455.12	34128.8
458.494	33756.2
461.869	33217.4
465.244	32932.4
468.619	32415
471.994	31935.8
475.368	31844.2
478.743	31580.2
482.118	31205.2
485.493	30903.7
488.868	30687
492.243	30502.7
495.617	30660.1
498.992	30367.3
502.367	30301.7
505.742	30226.2
509.117	30097.9
512.491	30107
515.866	29970.2
519.241	29665.9
522.616	29625.4
525.991	29435.7
529.365	29539
532.74	29512.3
536.115	29524.9
539.49	29546.7
542.865	29561
546.24	29575
549.614	29708.6
552.989	29885.9
556.364	30005.1
559.739	30058.4
563.114	30198.5
566.489	30427.4
569.863	30588.5
573.238	31001.1
576.613	31075.2
579.988	31397.2
583.362	31843.3
586.737	32147.4
590.112	32307.2
593.487	32395.6
596.862	32376.4
600.237	32346.9
603.611	32306.5
606.986	32103.6
610.361	31831.6
613.736	31613.5
617.111	31270.8
620.486	31013.9
623.86	30834.7
627.235	30568.2
630.61	30181
633.985	30025.7
637.36	29988.6
640.734	28918
644.109	28468.5
647.484	27895.4
650.859	27460.8
654.234	26570.6
657.609	25699.6
660.983	24910.1
664.358	24046
667.733	23341.6
671.108	22579.3
674.483	21801.5
677.857	20968.2
681.232	20165.2
684.607	19366.8
687.982	18587.1
691.357	17825.3
694.731	17123.4
698.106	16389.5
701.481	15771.4
704.856	15074.2
708.231	14731.2
711.606	14213
714.98	13792.9
718.355	13216.8
721.73	12503.6
725.105	11950.5
728.48	11335.8
731.855	11024.9
735.229	10534.9
738.604	10156.8
741.979	9679.69
745.354	9360.19
748.729	9102.15
752.103	8696.44
755.478	8511.35
758.853	8315.66
762.228	8029.07
765.603	7766.7
768.977	7569.54
772.352	7410.73
775.727	7311.35
779.102	7101.22
782.477	6898.39
785.852	6774.16
789.226	6637.74
792.601	6456.29
795.976	6381.29
799.351	6345.18
802.726	6242.45
806.101	6085.49
809.475	6058.2
812.85	5909.94
816.225	5876.42
819.6	5834.31
822.975	5737.49
826.349	5576.77
829.724	5557.96
833.099	5567.85
836.474	5511.21
839.849	5426.13
843.223	5377.52
846.598	5373.83
849.973	5381.38
853.348	5439.72
856.723	5513.9
860.097	5334.15
863.472	5402.27
866.847	5507.02
870.222	5525.1
873.597	5382.32
876.972	5230.08
880.346	5317.27
883.721	5302.84
887.096	5330.82
890.471	5360.41
893.846	5471.54
897.221	5391.94
900.595	5431.51
903.97	5483.25
907.345	5643.17
910.72	5657.01
914.095	5810.11
917.469	5749.1
920.844	5837.05
924.219	5872.39
927.594	5967.28
930.969	6049.05
934.343	6281.32
937.718	6464.63
941.093	6621.52
944.468	6709.77
947.843	6913.31
951.218	7113.9
954.592	7387.91
957.967	7585.43
961.342	7931.94
964.717	8063.87
968.092	8567.44
971.466	8716.01
974.841	9109.87
978.216	9590.95
981.591	10077.5
984.966	10407
988.341	10946.9
991.715	11274.4
995.09	11825.4
998.465	12391.8
1001.84	13043.6
1005.22	13591.2
1008.59	14176.3
1011.96	14766.4
1015.34	15420.6
1018.71	16151.5
1022.09	16849.3
1025.46	17598.9
1028.84	18285
1032.21	19101.6
1035.59	19911.1
1038.96	20862.4
1042.34	21695.8
1045.71	22643.3
1049.09	23623.8
1052.46	24632.6
1055.84	25970.4
1059.21	27239.3
1062.59	28066.4
1065.96	29331
1069.34	30669.2
1072.71	32342.5
1076.09	34144.3
1079.46	36349.2
1082.84	38725.5
1086.21	37854.5
1089.59	38283.8
1092.96	39174.2
1096.34	40352.2
1099.71	41051.3
1103.08	42243.5
1106.46	43164.1
1109.83	44721.6
1113.21	45689.4
1116.58	47260
1119.96	48983.2
1123.33	51159.4
1126.71	53252.6
1130.08	55827.4
1133.46	58662.7
1136.83	62146.9
1140.21	66236.8
1143.58	70885.4
1146.96	76727
1150.33	83250.9
1153.71	90545
1157.08	98829.4
1160.46	107706
1163.83	117427
1167.21	127149
1170.58	136757
1173.96	145733
1177.33	154828
1180.7	164235
1184.08	173313
1187.45	184179
1190.83	195508
1194.2	207954
1197.58	221624
1200.95	235867
1204.33	252264
1207.7	269349
1211.08	288621
1214.45	308896
1217.83	330932
1221.2	352504
1224.58	374391
1227.95	395653
1231.33	414356
1234.7	429592
1238.08	441710
1241.45	449104
1244.83	457559
1248.2	468247
1251.58	483223
1254.95	508861
1258.33	541813
1261.7	579244
1265.08	611734
1268.45	632461
1271.83	643734
1275.2	654682
1278.58	669821
1281.95	685124
1285.32	694409
