Measurement: Raman, 532 nm, unoriented, Raman Data Processed
Mineral: Arsenopyrite
Rruff sample: R061082
Ideal chemistry: Fe^3+^(AsS)^3-^
Locality: Little Gem mine, Goldbridge, British Columbia, Canada
Source: Lloyd Twaites
Description: Silver gray metallic fragments
Measured chemistry: Fe_1.00_As_1.00_S_1.00_
Raman shift (cm-1)	intensity
132.171	0
135.546	21.3369
138.921	21.453
142.296	23.1155
145.671	16.5952
149.045	23.4914
152.42	9.03038
155.795	25.1207
159.17	19.2864
162.545	17.4095
165.919	24.4079
169.294	11.0209
172.669	14.6752
176.044	32.1414
179.419	17.6729
182.794	18.6064
186.168	25.599
189.543	2.68407
192.918	4.99758
196.293	14.7478
199.668	7.93537
203.042	3.79026
206.417	5.17824
209.792	7.65514
213.167	22.7711
216.542	6.22086
219.917	16.3806
223.291	19.9073
226.666	27.3588
230.041	1.42413
233.416	13.4263
236.791	15.6876
240.165	12.2351
243.54	16.8172
246.915	17.2858
250.29	25.4785
253.665	29.7787
257.039	35.1509
260.414	2.93665
263.789	21.3464
267.164	4.64905
270.539	23.9366
273.913	2.37845
277.288	12.9614
280.663	26.9368
284.038	15.8282
287.413	24.1897
290.788	16.2148
294.162	34.6719
297.537	12.8085
300.912	17.3667
304.287	19.435
307.662	30.9648
311.036	14.6986
314.411	29.4731
317.786	15.2309
321.161	21.8304
324.536	15.41
327.911	34.768
331.285	23.1215
334.66	28.7671
338.035	10.0103
341.41	8.54111
344.785	8.20965
348.159	24.9522
351.534	22.7092
354.909	13.0855
358.284	22.3227
361.659	21.2283
365.034	20.8018
368.408	20.6614
371.783	13.7637
375.158	18.3785
378.533	1.28341
381.908	25.8008
385.282	3.57351
388.657	11.4465
392.032	8.33887
395.407	19.2027
398.782	18.979
402.156	19.0685
405.531	6.74818
408.906	36.3335
412.281	25.0279
415.656	20.4696
419.031	23.8117
422.405	14.6515
425.78	14.7083
429.155	21.1112
432.53	7.26426
435.905	1.62377
439.279	16.5787
442.654	18.3724
446.029	13.0283
449.404	29.7882
452.779	19.0908
456.154	1.82948
459.528	15.7071
462.903	4.10443
466.278	20.6579
469.653	25.4998
473.028	22.4451
476.402	38.4595
479.777	16.2619
483.152	35.5499
486.527	0.745712
489.902	16.0715
493.276	18.1598
496.651	15.0884
500.026	30.0115
503.401	14.6627
506.776	12.9644
510.151	15.9972
513.525	1.80995
516.9	11.6148
520.275	7.43516
523.65	13.4281
527.025	4.22678
530.399	16.5472
533.774	16.2014
537.149	17.5872
540.524	24.1525
543.899	17.956
547.274	16.355
550.648	29.2935
554.023	24.9783
557.398	6.59233
560.773	15.6362
564.148	24.1586
567.522	10.0364
570.897	9.2489
574.272	12.2866
577.647	23.6811
581.022	12.8806
584.396	8.07804
587.771	10.5159
591.146	3.6269
594.521	16.0441
597.896	4.16509
601.271	4.68807
604.645	8.2443
608.02	4.64516
611.395	19.3877
614.77	1.99738
618.145	14.2135
621.519	12.917
624.894	20.5953
628.269	4.22002
631.644	19.0541
635.019	27.3264
638.394	8.0773
641.768	15.3887
645.143	12.9878
648.518	15.3611
651.893	11.6041
655.268	13.9553
658.642	18.5867
662.017	5.95207
665.392	10.5377
668.767	21.4429
672.142	0.533474
675.516	25.0665
678.891	1.01432
682.266	21.2616
685.641	19.8323
689.016	1.59744
692.391	28.3496
695.765	32.5033
699.14	8.44938
702.515	25.0742
705.89	1.17866
709.265	8.73782
712.639	26.1292
716.014	2.59588
719.389	3.36191
722.764	16.4687
726.139	28.452
729.514	20.7914
732.888	21.7481
736.263	19.3267
739.638	13.8099
743.013	7.56244
746.388	33.4815
749.762	19.2667
753.137	18.7202
756.512	1.39799
759.887	8.60838
763.262	0.258217
766.636	4.43894
770.011	25.4362
773.386	7.37542
776.761	20.4014
780.136	21.4559
783.51	5.23464
786.885	18.6432
790.26	11.7626
793.635	11.5915
797.01	1.60776
800.385	29.0673
803.759	19.2462
807.134	17.1285
810.509	6.38908
813.884	13.0939
817.259	12.1013
820.634	24.5039
824.008	22.1075
827.383	20.8445
830.758	4.21861
834.133	26.9907
837.508	16.6517
840.882	17.7859
844.257	5.00904
847.632	23.0359
851.007	7.31386
854.382	21.4849
857.756	24.4818
861.131	5.22388
864.506	24.2364
867.881	15.762
871.256	23.1729
874.63	17.5273
878.005	6.23761
881.38	6.41341
884.755	23.6161
888.13	14.8348
891.505	25.8405
894.879	0.295296
898.254	0.87009
901.629	12.3353
905.004	4.10324
908.379	8.72124
911.754	13.3161
915.128	47.4516
918.503	15.0765
921.878	17.4742
925.253	11.7666
928.628	10.3507
932.002	12.9616
935.377	9.80626
938.752	4.37418
942.127	12.2607
945.502	3.39462
948.876	11.4535
952.251	16.2606
955.626	19.1424
959.001	7.75187
962.376	8.57412
965.75	0.757725
969.125	17.956
972.5	9.29109
975.875	9.69921
979.25	22.1567
982.625	4.07589
985.999	18.7765
989.374	21.1755
992.749	13.1423
996.124	17.6557
999.499	17.2954
1002.87	4.91074
1006.25	21.8103
1009.62	15.2961
1013	25.8381
1016.37	10.4696
1019.75	14.8969
1023.12	17.7103
1026.5	11.6818
1029.87	15.1379
1033.25	47.9895
1036.62	10.3232
1040	8.60842
1043.37	9.49252
1046.75	16.8725
1050.12	19.5323
1053.5	8.29796
1056.87	39.6284
1060.24	16.9409
1063.62	3.88341
1066.99	0.037357
1070.37	13.7316
1073.74	4.0936
1077.12	20.8141
1080.49	26.6443
1083.87	40.5324
1087.24	32.5302
1090.62	26.0758
1093.99	24.2635
1097.37	22.1272
1100.74	4.35383
1104.12	9.29225
1107.49	13.2085
1110.87	6.85387
1114.24	7.18346
1117.62	21.038
1120.99	38.3798
1124.37	3.72246
1127.74	6.66794
1131.12	12.0279
1134.49	18.1084
1137.87	1.57867
1141.24	18.9725
1144.62	11.1272
1147.99	4.35258
1151.37	29.2785
1154.74	14.2228
1158.12	10.6486
1161.49	8.48114
1164.87	24.7178
1168.24	8.71249
1171.61	35.83
1174.99	13.415
1178.36	0.822475
1181.74	11.6201
1185.11	9.02502
1188.49	10.8499
1191.86	24.447
1195.24	25.4454
1198.61	6.1892
1201.99	20.5906
1205.36	23.5133
1208.74	21.1829
1212.11	13.7376
1215.49	28.0443
1218.86	0.015629
1222.24	11.9454
1225.61	3.74115
1228.99	10.5066
1232.36	5.36759
1235.74	9.52718
1239.11	26.036
1242.48	9.15396
1245.86	13.5788
1249.23	16.3789
1252.61	9.57289
1255.98	35.8595
1259.36	23.3496
1262.73	33.7228
1266.11	33.8101
1269.48	15.8934
1272.86	14.1707
1276.23	27.1522
1279.61	34.3355
1282.98	6.33217
1286.36	29.6056
1289.73	16.7467
1293.11	7.26051
1296.48	1.25052
