Measurement: Raman, 785 nm, unoriented, Raman Data Processed
Mineral: Arsenopyrite
Rruff sample: R061082
Ideal chemistry: Fe^3+^(AsS)^3-^
Locality: Little Gem mine, Goldbridge, British Columbia, Canada
Source: Lloyd Twaites
Description: Silver gray metallic fragments
Measured chemistry: Fe_1.00_As_1.00_S_1.00_
Raman shift (cm-1)	intensity
86.9167	0
90.2915	31.381
93.6663	43.9581
97.0411	56.4832
100.416	51.0328
103.791	42.2339
107.166	23.9946
110.54	13.5025
113.915	20.131
117.29	7.07544
120.665	34.7104
124.04	54.6581
127.415	73.5929
130.789	99.4936
134.164	96.4688
137.539	57.1738
140.914	90.0095
144.289	111.422
147.663	130.708
151.038	71.1386
154.413	75.6576
157.788	67.1307
161.163	55.0371
164.537	54.6432
167.912	76.7245
171.287	46.4755
174.662	31.6504
178.037	51.2497
181.411	26.9774
184.786	8.85488
188.161	2.5451
191.536	17.7875
194.911	19.4685
198.286	31.7201
201.66	20.2167
205.035	6.71174
208.41	11.8176
211.785	15.7929
215.16	3.96759
218.535	19.5287
221.909	11.6938
225.284	14.5074
228.659	13.4235
232.034	1.18919
235.409	11.8834
238.783	7.73983
242.158	6.81262
245.533	14.148
248.908	16.703
252.283	9.75755
255.657	2.52139
259.032	12.2559
262.407	14.4011
265.782	20.429
269.157	16.3367
272.532	16.1205
275.906	9.44102
279.281	22.3712
282.656	1.46705
286.031	14.8917
289.406	22.0638
292.78	30.466
296.155	37.5089
299.53	16.0751
302.905	14.9695
306.28	7.95151
309.654	19.723
313.029	0.908703
316.404	7.40981
319.779	21.1863
323.154	14.2513
326.529	2.97408
329.903	18.8954
333.278	26.9127
336.653	12.6428
340.028	9.95181
343.403	11.5662
346.777	12.083
350.152	21.1857
353.527	20.7717
356.902	16.4821
360.277	23.7969
363.652	20.778
367.026	14.069
370.401	20.373
373.776	23.6425
377.151	8.96456
380.526	8.49019
383.901	7.48224
387.275	14.4665
390.65	0.706856
394.025	27.1772
397.4	7.39902
400.774	34.124
404.149	23.1129
407.524	17.6699
410.899	25.2816
414.274	19.0119
417.649	9.68625
421.023	27.0128
424.398	11.7256
427.773	13.5814
431.148	17.6264
434.523	11.6987
437.897	17.8147
441.272	2.12931
444.647	14.433
448.022	14.9074
451.397	19.2157
454.772	15.6876
458.146	16.4298
461.521	9.76663
464.896	5.12782
468.271	13.5661
471.646	15.0114
475.021	21.1721
478.395	16.9254
481.77	13.2714
485.145	0.672426
488.52	30.8504
491.895	10.8001
495.269	14.4225
498.644	13.8988
502.019	2.22224
505.394	9.32418
508.769	15.4225
512.143	4.90029
515.518	16.4408
518.893	7.29218
522.268	13.9346
525.643	7.1696
529.018	24.4242
532.392	17.1796
535.767	1.5535
539.142	11.2826
542.517	14.9272
545.892	10.9752
549.266	13.1291
552.641	23.3025
556.016	12.769
559.391	13.1163
562.766	4.73435
566.14	7.23783
569.515	0.562092
572.89	6.79537
576.265	3.36583
579.64	15.2343
583.015	11.3972
586.389	11.0818
589.764	9.21151
593.139	18.9824
596.514	1.01807
599.889	0.658159
603.264	12.6538
606.638	9.64273
610.013	5.33033
613.388	4.58706
616.763	4.49525
620.138	13.7335
623.512	13.5594
626.887	19.7694
630.262	11.1282
633.637	7.64755
637.012	10.9126
640.386	17.9937
643.761	18.3874
647.136	3.31927
650.511	21.2505
653.886	23.7062
657.261	4.29677
660.635	16.2099
664.01	16.0496
667.385	14.4548
670.76	24.1709
674.135	19.4444
677.509	17.1297
680.884	14.0751
684.259	12.5989
687.634	6.26469
691.009	16.9552
694.384	22.8446
697.758	5.35703
701.133	18.5448
704.508	25.1388
707.883	14.8633
711.258	5.2215
714.632	16.0381
718.007	14.2153
721.382	25.5495
724.757	8.58437
728.132	28.5892
731.506	15.2013
734.881	15.7964
738.256	15.981
741.631	30.8492
745.006	6.19018
748.381	17.5513
751.755	14.7449
755.13	17.0479
758.505	18.9921
761.88	5.0164
765.255	14.0726
768.63	3.70705
772.004	20.8538
775.379	13.0928
778.754	12.2341
782.129	15.1588
785.504	7.20385
788.878	0.909644
792.253	6.3596
795.628	7.20922
799.003	2.12873
802.378	17.7097
805.752	16.8609
809.127	13.7048
812.502	19.8046
815.877	11.5694
819.252	20.7135
822.626	0.831621
826.001	17.6114
829.376	15.6096
832.751	16.1945
836.126	8.40628
839.5	11.1434
842.875	13.8746
846.25	23.4567
849.625	8.67297
853	1.92545
856.375	3.23434
859.75	13.0314
863.124	21.6263
866.499	1.63507
869.874	25.838
873.249	18.3414
876.624	5.1426
879.998	15.5842
883.373	16.8642
886.748	14.5407
890.123	3.59664
893.498	14.3809
896.872	2.27766
900.247	1.61365
903.622	14.3322
906.997	35.3705
910.372	3.52565
913.746	19.2674
917.121	18.6467
920.496	4.27811
923.871	5.30359
927.246	21.4847
930.621	1.19601
933.995	13.4494
937.37	1.66588
940.745	9.55709
944.12	19.8291
947.495	8.98804
950.87	12.2342
954.244	39.2993
957.619	13.2425
960.994	11.5313
964.369	18.7092
967.744	13.9192
971.118	29.7948
974.493	17.4159
977.868	23.6394
981.243	11.3111
984.618	19.9786
987.992	24.0848
991.367	28.1672
994.742	11.801
998.117	21.3746
1001.49	10.7376
1004.87	10.6874
1008.24	16.5457
1011.62	6.01986
1014.99	14.9251
1018.37	17.7456
1021.74	0.629803
1025.12	16.2151
1028.49	30.901
1031.87	14.3285
1035.24	0.404049
1038.62	13.2026
1041.99	11.2975
1045.36	7.55288
1048.74	12.4423
1052.11	4.46433
1055.49	11.9429
1058.86	17.279
1062.24	25.6557
1065.61	5.48884
1068.99	15.8062
1072.36	21.8903
1075.74	11.642
1079.11	18.1577
1082.49	17.5553
1085.86	30.3172
1089.24	9.03133
1092.61	3.94502
1095.99	16.5054
1099.36	18.6118
1102.74	10.4309
1106.11	22.77
1109.49	13.701
1112.86	9.45645
1116.23	15.5716
1119.61	13.0749
1122.98	20.5048
1126.36	15.0147
1129.73	28.1977
1133.11	38.9528
1136.48	4.22997
1139.86	8.30097
1143.23	16.6855
1146.61	7.39296
1149.98	23.8455
1153.36	20.5434
1156.73	19.0843
1160.11	19.7903
1163.48	25.2964
1166.86	9.59508
1170.23	0.403236
1173.61	20.1674
1176.98	21.9142
1180.36	17.1492
1183.73	38.3181
1187.11	3.07179
1190.48	0.810704
1193.86	15.2503
1197.23	13.14
1200.61	0.798369
1203.98	9.71229
1207.36	7.50981
1210.73	30.7149
1214.11	24.5875
1217.48	27.4669
1220.86	18.2543
1224.23	25.2464
1227.6	4.08454
1230.98	21.439
1234.35	18.7823
1237.73	4.10527
1241.1	23.1594
1244.48	15.1863
1247.85	19.7001
1251.23	19.1586
1254.6	8.34145
1257.98	8.98368
1261.35	25.1794
1264.73	12.9987
1268.1	0.22351
