Measurement: Raman, 780 nm, unoriented, Raman Data Processed
Mineral: Arthurite
Rruff sample: R060235
Ideal chemistry: Cu^2+^Fe^3+^_2_(As^5+^O_4_)_2_(OH)_2_4H_2_O
Locality: Copper Stope, Majuba Hill mine, Pershing County, Nevada, USA
Source: Michael Scott
Description: Divergent sprays of green thin prismatic crystals
Raman shift (cm-1)	intensity
147.753	0
150.645	270.189
153.538	93.9846
156.431	353.433
159.323	54.6076
162.216	794.01
165.109	851.495
168.002	767.453
170.894	712.442
173.787	939.254
176.68	1650.94
179.572	558.268
182.465	755.677
185.358	42.5976
188.25	31.6545
191.143	355.306
194.036	80.3934
196.929	525.909
199.821	166.063
202.714	441.885
205.607	52.3995
208.499	1009.08
211.392	138.903
214.285	1436.75
217.178	839.868
220.07	1141.62
222.963	1620.14
225.856	983.739
228.748	1453.16
231.641	1068.92
234.534	1156.48
237.426	1261.98
240.319	1628.12
243.212	1508.88
246.105	32.773
248.997	1245.21
251.89	254.777
254.783	411.156
257.675	316.951
260.568	282.643
263.461	392.566
266.353	59.6971
269.246	187.244
272.139	478.653
275.031	290.217
277.924	1010.32
280.817	463.419
283.71	567.633
286.602	852.552
289.495	418.07
292.388	1041.19
295.28	460.043
298.173	249.264
301.066	1008.11
303.959	973.69
306.851	437.252
309.744	30.1291
312.637	739.422
315.529	636.138
318.422	249.388
321.315	121.952
324.207	320.814
327.1	21.9849
329.993	104.461
332.885	143.509
335.778	343.798
338.671	189.634
341.564	731.051
344.456	234.664
347.349	211.186
350.242	455.503
353.134	853.235
356.027	396.627
358.92	278.487
361.812	545.041
364.705	282.143
367.598	484.909
370.491	336.247
373.383	324.693
376.276	203.458
379.169	358.656
382.061	483.423
384.954	64.3237
387.847	360.322
390.74	3.07931
393.632	885.29
396.525	247.342
399.418	753.358
402.31	421.39
405.203	398.038
408.096	382.634
410.988	895.277
413.881	591.524
416.774	858.404
419.666	765.839
422.559	747.053
425.452	970.485
428.345	710.979
431.237	1064.38
434.13	413.112
437.023	465.854
439.915	266.209
442.808	538.961
445.701	621.89
448.594	349.088
451.486	0.280533
454.379	21.5999
457.272	49.3024
460.164	207.743
463.057	135.921
465.95	390.763
468.842	698.814
471.735	401.28
474.628	570.412
477.52	985.821
480.413	839.251
483.306	718.491
486.199	679.505
489.091	1059.73
491.984	543.667
494.877	963.942
497.769	1067.66
500.662	894.296
503.555	1236
506.447	846.402
509.34	460.509
512.233	662.272
515.125	71.9986
518.018	368.685
520.911	37.0246
523.804	729.137
526.696	145.857
529.589	577.171
532.482	8.53567
535.375	515.895
538.267	347.603
541.16	0.837372
544.053	314.665
546.945	549.779
549.838	471.547
552.731	661.248
555.623	496.307
558.516	612.661
561.409	303.142
564.302	155.055
567.194	574.067
570.087	342.895
572.98	362.557
575.872	309.805
578.765	312.858
581.658	211.675
584.55	336.83
587.443	529.727
590.336	22.6957
593.229	394.953
596.121	556.162
599.014	321.384
601.907	59.1786
604.799	124.029
607.692	92.3324
610.585	422.003
613.477	342.355
616.37	448.7
619.263	336.62
622.155	145.222
625.048	112.741
627.941	22.9275
630.834	482.665
633.726	591.763
636.619	41.4732
639.512	4.17959
642.404	609.182
645.297	190.252
648.19	292.677
651.082	544.618
653.975	194.328
656.868	468.49
659.761	610.499
662.653	93.423
665.546	579.554
668.439	391.777
671.331	433.199
674.224	302.247
677.117	201.999
680.01	629.043
682.902	531.562
685.795	1210.7
688.688	447.267
691.58	1135.99
694.473	291.526
697.366	792.61
700.258	702.916
703.151	480.422
706.044	282.007
708.937	431.231
711.829	390.648
714.722	426.413
717.615	460.62
720.507	713.258
723.4	204.632
726.293	474.013
729.185	307.745
732.078	182.109
734.971	278.32
737.864	150.409
740.756	48.5975
743.649	75.3592
746.542	130.342
749.434	49.5703
752.327	195.648
755.22	438.67
758.112	105.425
761.005	412.287
763.898	253.417
766.79	369.805
769.683	261.277
772.576	359.944
775.469	677.814
778.361	677.137
781.254	518.357
784.147	590.305
787.039	265.35
789.932	382.38
792.825	460.048
795.717	439.957
798.61	1280.77
801.503	906.387
804.396	897.883
807.288	1147.37
810.181	781.737
813.074	744.783
815.966	831.037
818.859	474.088
821.752	270.038
824.644	626.728
827.537	633.772
830.43	1093.85
833.322	1717.1
836.215	1911.48
839.108	2348.62
842.001	2347.96
844.893	1891.91
847.786	1951.26
850.679	1292.1
853.571	489.627
856.464	259.209
859.357	354.393
862.25	353.461
865.142	43.0032
868.035	294.617
870.928	50.2031
873.82	15.7443
876.713	131.343
879.606	86.1318
882.498	162.808
885.391	296.528
888.284	41.5047
891.177	493.182
894.069	417.533
896.962	252.752
899.855	61.5151
902.747	651.374
905.64	10.0311
908.533	295.27
911.425	23.987
914.318	437.244
917.211	631.929
920.104	15.8818
922.996	278.091
925.889	538.769
928.782	419.677
931.674	11.9618
934.567	540.209
937.46	283.303
940.352	188.935
943.245	621.361
946.138	578.471
949.03	151.5
951.923	29.5044
954.816	29.5138
957.709	68.9401
960.601	457.824
963.494	815.408
966.387	650.872
969.279	661.222
972.172	310.229
975.065	449.062
977.957	576.279
980.85	974.838
983.743	287.165
986.636	617.284
989.528	512.331
992.421	560.78
995.314	40.4117
998.206	514.894
1001.1	659.546
1003.99	185.009
1006.88	332.233
1009.78	375.028
1012.67	167.13
1015.56	538.191
1018.46	122.327
1021.35	398.812
1024.24	282.329
1027.13	513.447
1030.03	743.54
1032.92	298.374
1035.81	263.422
1038.7	775.411
1041.6	302.82
1044.49	511.52
1047.38	76.3674
1050.28	111.716
1053.17	221.416
1056.06	677.976
1058.95	739.905
1061.85	21.6733
1064.74	592.318
1067.63	419.538
1070.52	183.499
1073.42	404.671
1076.31	54.5161
1079.2	199.417
1082.1	221.702
1084.99	158.743
1087.88	91.9312
1090.77	347.71
1093.67	8.95187
1096.56	147.374
1099.45	82.5782
1102.34	783.268
1105.24	230.623
1108.13	188.639
1111.02	384.543
1113.91	620.454
1116.81	392.392
1119.7	6.54687
1122.59	115.432
1125.48	7.71166
1128.38	322.899
1131.27	489.807
1134.16	553.152
1137.06	378.104
1139.95	325.297
1142.84	457.663
1145.73	222.774
1148.63	370.257
1151.52	181.153
1154.41	476.903
1157.31	450.147
1160.2	494.123
1163.09	446.699
1165.98	5.81831
1168.88	540.029
1171.77	493.307
1174.66	528.865
1177.55	343.146
1180.45	609.845
1183.34	134.517
1186.23	269.733
1189.12	572.495
1192.02	632.813
1194.91	172.844
1197.8	529.721
1200.69	262.805
1203.59	270.877
1206.48	71.2427
1209.37	529.178
1212.27	373.034
1215.16	344.015
1218.05	411.715
1220.94	392.516
1223.84	285.851
1226.73	897.214
1229.62	592.803
1232.52	406.858
1235.41	440.897
1238.3	740.602
1241.19	589.188
1244.09	777.937
1246.98	96.5078
1249.87	408.731
1252.76	398.403
1255.66	560.694
1258.55	582.343
1261.44	241.29
1264.34	672.504
1267.23	1.22079
1270.12	317.542
1273.01	353.184
1275.91	565.897
1278.8	220.7
1281.69	2.33119
1284.58	51.3526
