Measurement: Raman, 532 nm, unoriented, Raman Data Processed
Mineral: Asbolane
Rruff sample: R070306
Ideal chemistry: Mn^4+^(O,OH)_2_(Co^3+^,Ni^2+^,Mg,Ca)_x_(OH)_2x_nH_2_O
Locality: Porterville, Tulare County, California, USA
Source: James Shigley
Description: Coating of thin micron sized black platelets
Raman shift (cm-1)	intensity
176.178	0
179.071	0.580566
181.964	34.2009
184.856	41.9011
187.749	24.6174
190.642	37.7664
193.535	43.3774
196.427	45.6267
199.32	43.5371
202.213	43.0422
205.105	10.573
207.998	29.5513
210.891	25.9627
213.783	22.8386
216.676	32.9587
219.569	54.1882
222.462	70.4031
225.354	59.0398
228.247	39.5759
231.14	31.082
234.032	46.3547
236.925	0.51001
239.818	26.2246
242.71	6.83472
245.603	46.5945
248.496	4.12646
251.388	11.7058
254.281	13.3254
257.174	17.4597
260.067	19.0102
262.959	32.9204
265.852	24.5171
268.745	30.6201
271.637	26.0969
274.53	23.2461
277.423	1.30493
280.315	51.7378
283.208	22.0269
286.101	27.3481
288.994	7.5332
291.886	12.8249
294.779	13.7168
297.672	35.7747
300.564	23.6081
303.457	24.8457
306.35	49.9534
309.243	20.5012
312.135	25.3581
315.028	30.7136
317.921	8.1521
320.813	16.0432
323.706	53.6133
326.599	59.1897
329.491	17.7114
332.384	17.8689
335.277	15.3779
338.17	41.804
341.062	56.5801
343.955	1.83472
346.848	36.0759
349.74	53.7341
352.633	56.294
355.526	83.603
358.418	72.8184
361.311	68.8362
364.204	82.8733
367.097	118.569
369.989	110.6
372.882	70.8486
375.775	112.77
378.667	64.323
381.56	83.6782
384.453	53.8689
387.346	77.5584
390.238	24.23
393.131	56.8313
396.024	8.5813
398.916	76.9851
401.809	30.387
404.702	46.4717
407.594	0.866699
410.487	14.3418
413.38	25.8115
416.272	25.0884
419.165	31.1274
422.058	14.5347
424.951	42.6648
427.843	19.427
430.736	5.38599
433.629	40.0203
436.521	11.2739
439.414	7.71045
442.307	31.8469
445.2	44.457
448.092	29.2278
450.985	46.4697
453.878	31.8367
456.77	39.3606
459.663	99.781
462.556	69.4978
465.448	107.282
468.341	120.989
471.234	106.023
474.127	104.689
477.019	94.5007
479.912	146.958
482.805	136.059
485.697	159.473
488.59	132.033
491.483	141.695
494.375	127.705
497.268	98.6052
500.161	39.1345
503.053	49.6289
505.946	33.4329
508.839	1.22168
511.732	26.989
514.624	19.6775
517.517	26.0195
520.41	14.8105
523.302	44.8508
526.195	124.009
529.088	167.597
531.981	216.652
534.873	305.712
537.766	369.158
540.659	378.233
543.551	346.519
546.444	356.747
549.337	336.261
552.229	313.505
555.122	333.865
558.015	318.75
560.908	256.708
563.8	307.09
566.693	255.189
569.586	263.52
572.478	230.054
575.371	250.645
578.264	254.697
581.156	196.793
584.049	263.32
586.942	295.318
589.835	274.637
592.727	235.055
595.62	226.098
598.513	255.595
601.405	201.086
604.298	141.094
607.191	185.116
610.083	172.635
612.976	176.418
615.869	182.294
618.762	144.739
621.654	127.507
624.547	124.508
627.44	123.654
630.332	61.2153
633.225	66.3757
636.118	69.7317
639.01	81.9717
641.903	70.1348
644.796	96.5015
647.689	70.0891
650.581	56.9116
653.474	83.0164
656.367	47.519
659.259	45.2163
662.152	84.2722
665.045	45.415
667.938	68.1426
670.83	61.7634
673.723	60.4526
676.616	18.9465
679.508	46.8396
682.401	63.1143
685.294	14.0581
688.186	14.9248
691.079	36.9075
693.972	27.0523
696.865	33.6321
699.757	2.66772
702.65	6.08106
705.543	2.45142
708.435	8.55542
711.328	45.5134
714.221	57.7727
717.113	40.7029
720.006	38.6755
722.899	19.4187
725.792	7.32593
728.684	32.0764
731.577	8.21997
734.47	8.22315
737.362	56.072
740.255	13.9844
743.148	48.3013
746.04	32.0193
748.933	75.8076
751.826	44.917
754.719	59.7988
757.611	39.0508
760.504	88.0483
763.397	46.8167
766.289	50.8433
769.182	33.3272
772.075	17.8535
774.967	75.0435
777.86	60.5754
780.753	24.3718
783.646	83.8992
786.538	58.571
789.431	61.8503
792.324	61.7588
795.216	41.3718
798.109	85.1228
801.002	71.2532
803.894	93.2927
806.787	19.0073
809.68	44.9534
812.573	62.5796
815.465	22.7918
818.358	45.4233
821.251	48.6025
824.143	18.1375
827.036	24.8335
829.929	1.24536
832.822	28.3699
835.714	44.28
838.607	52.7734
841.5	14.812
844.392	52.8943
847.285	4.23926
850.178	1.37353
853.07	7.03662
855.963	14.9119
858.856	10.6773
861.749	46.7759
864.641	27.2761
867.534	10.6704
870.427	22.2407
873.319	52.8879
876.212	26.9695
879.105	47.8052
881.997	27.9858
884.89	83.6055
887.783	5.33984
890.676	5.60669
893.568	6.4165
896.461	51.8533
899.354	48.6065
902.246	49.6965
905.139	26.2937
908.032	19.2278
910.924	42.9187
913.817	52.9038
916.71	8.39331
919.602	18.4905
922.495	35.9973
925.388	33.9155
928.281	41.9683
931.173	29.8352
934.066	11.5747
936.959	57.3872
939.851	11.3838
942.744	7.51562
945.637	29.1377
948.529	56.5857
951.422	64.6582
954.315	64.9441
957.208	52.324
960.1	52.5286
962.993	56.2849
965.886	25.0471
968.778	41.3652
971.671	54.3083
974.564	46.7097
977.457	49.7434
980.349	25.292
983.242	22.7722
986.135	46.6133
989.027	23.9756
991.92	8.54273
994.813	44.1475
997.705	31.3535
1000.6	13.7244
1003.49	16.7805
1006.38	43.6348
1009.28	7.61914
1012.17	34.1685
1015.06	39.4424
1017.95	30.5908
1020.85	24.7031
1023.74	27.0762
1026.63	33.833
1029.53	40.7002
1032.42	25.7827
1035.31	38.811
1038.2	49.9697
1041.1	45.2056
1043.99	3.54199
1046.88	37.1084
1049.77	24.0928
1052.67	13.2549
1055.56	12.2461
1058.45	13.1226
1061.35	38.8403
1064.24	65.8223
1067.13	8.34668
1070.02	21.041
1072.92	67.9136
1075.81	52.5581
1078.7	60.2725
1081.59	1.93359
1084.49	41.4863
1087.38	85.5718
1090.27	63.9629
1093.16	11.9326
1096.06	69.1226
1098.95	61.5703
1101.84	66.1719
1104.73	79.144
1107.63	114.141
1110.52	38.1704
1113.41	53.0303
1116.31	71.5933
1119.2	74.4912
1122.09	56.7549
1124.98	40.2388
1127.88	46.3125
1130.77	70.7505
1133.66	50.4082
1136.56	74.8638
1139.45	8.51758
1142.34	71.3706
1145.23	64.5977
1148.13	88.4067
1151.02	75.6958
1153.91	54.915
1156.8	59.2251
1159.7	13.0332
1162.59	48.4434
1165.48	56.9141
1168.38	67.7481
1171.27	12.6519
1174.16	0.645996
1177.05	93.9141
1179.95	53.1616
1182.84	48.813
1185.73	11.1982
1188.62	1.56982
1191.52	80.3833
1194.41	101.076
1197.3	60.3486
1200.19	61.2178
1203.09	73.5083
1205.98	7.75928
1208.87	0.23877
1211.77	58.6714
1214.66	39.3501
1217.55	0.698242
1220.44	54.9898
1223.34	40.8486
1226.23	50.4351
1229.12	21.3486
1232.01	56.3794
1234.91	57.4204
1237.8	10.5894
1240.69	45.1611
1243.59	10.6548
1246.48	17.3643
1249.37	28.333
1252.26	55.9624
1255.16	28.6104
1258.05	44.7002
1260.94	96.8945
1263.83	61.103
1266.73	68.0478
1269.62	57.7153
1272.51	40.0391
1275.4	82.8286
1278.3	56.3745
1281.19	21.9439
1284.08	22.6396
1286.98	50.2315
1289.87	44.3945
1292.76	34.6816
1295.65	70.4941
1298.55	0.596191
