Measurement: Raman, 785 nm, unoriented, Raman Data Processed
Mineral: Asbolane
Rruff sample: R070306
Ideal chemistry: Mn^4+^(O,OH)_2_(Co^3+^,Ni^2+^,Mg,Ca)_x_(OH)_2x_nH_2_O
Locality: Porterville, Tulare County, California, USA
Source: James Shigley
Description: Coating of thin micron sized black platelets
Raman shift (cm-1)	intensity
182.73	0
185.623	72.9668
188.516	11.959
191.408	2.13867
194.301	157.303
197.194	230.129
200.087	269.696
202.979	243.902
205.872	177.247
208.765	170.239
211.657	84.5732
214.55	93.7266
217.443	138.542
220.335	103.691
223.228	156.387
226.121	176.608
229.013	160.679
231.906	136.936
234.799	126.247
237.692	86.21
240.584	19.1465
243.477	72.1738
246.37	91.6699
249.262	60.7559
252.155	109.875
255.048	67.4248
257.941	68.9287
260.833	84.7969
263.726	24.9678
266.619	74.7188
269.511	22.5996
272.404	63.6582
275.297	8.10156
278.19	25.0029
281.082	67.4922
283.975	17.8076
286.868	16.1406
289.76	83.4727
292.653	90.6436
295.546	1.82617
298.438	25.7402
301.331	26.6543
304.224	37.9551
307.116	74.4814
310.009	102.953
312.902	68.2783
315.795	109.886
318.687	73.5684
321.58	58.9199
324.473	18.6006
327.365	44.1074
330.258	28.0742
333.151	104.794
336.043	124.178
338.936	103.699
341.829	95.5469
344.721	10.9668
347.614	56.0478
350.507	89.9092
353.4	103.213
356.292	98.5898
359.185	222.274
362.078	143.381
364.97	124.103
367.863	119.407
370.756	74.75
373.649	98.9228
376.541	150.324
379.434	50.5059
382.327	176.86
385.219	64.6748
388.112	10.7217
391.005	4.45996
393.897	55.5918
396.79	6.41016
399.683	46.4473
402.575	13.2881
405.468	2.99219
408.361	57.6914
411.254	12.0664
414.146	41.4648
417.039	30.082
419.932	21.125
422.824	16.834
425.717	55.6895
428.61	43.5029
431.502	60.4482
434.395	54.7471
437.288	81.6123
440.181	90.2061
443.073	135.501
445.966	137.331
448.859	172.817
451.751	194.2
454.644	181.005
457.537	195.589
460.43	179.694
463.322	172.381
466.215	211.475
469.108	162.275
472	167.1
474.893	166.077
477.786	206.795
480.678	117.986
483.571	141.213
486.464	160.192
489.356	140.965
492.249	139.395
495.142	79.1172
498.035	87.4805
500.927	3.4043
503.82	36.8691
506.713	37.544
509.605	25.2363
512.498	36.1699
515.391	63.4512
518.284	44.081
521.176	34.7002
524.069	194.537
526.962	207.562
529.854	284.553
532.747	431.262
535.64	538.984
538.533	521.407
541.425	615.654
544.318	597.16
547.211	613.412
550.103	474.196
552.996	566.444
555.889	428.144
558.781	514.018
561.674	694.083
564.567	713.883
567.459	854.348
570.352	1016.7
573.245	1108.76
576.138	1226.05
579.03	1473.13
581.923	1508.16
584.816	1446.39
587.708	1451.84
590.601	1376.24
593.494	1331.43
596.386	1226.6
599.279	1165.46
602.172	1135.95
605.064	1126.01
607.957	1115.66
610.85	1122.27
613.743	1224.42
616.635	1108.42
619.528	1061.12
622.421	1018.31
625.313	938.249
628.206	801.457
631.099	660.584
633.991	559.324
636.884	354.962
639.777	333.798
642.67	210.952
645.562	144.653
648.455	113.409
651.348	193.975
654.24	87.0303
657.133	80.5654
660.026	53.4228
662.918	41.4658
665.811	57.1357
668.704	61.1621
671.597	89.6856
674.489	61.2578
677.382	30.4082
680.275	25.5
683.167	22.9688
686.06	9.22266
688.953	57.5527
691.846	28.708
694.738	38.0303
697.631	28.1318
700.524	39.9043
703.416	41.9395
706.309	61.374
709.202	73.5439
712.094	14.7031
714.987	41.5478
717.88	54.6455
720.773	40.1377
723.665	70.2588
726.558	72.0498
729.451	59.7305
732.343	102.394
735.236	137.273
738.129	102.378
741.021	139.805
743.914	47.5088
746.807	137.543
749.699	141.868
752.592	139.461
755.485	75.3418
758.378	97.3213
761.27	41.9463
764.163	102.538
767.056	134.974
769.948	81.7715
772.841	75.9746
775.734	110.144
778.626	28.8984
781.519	33.6494
784.412	35.5293
787.305	18.8252
790.197	60.6435
793.09	19.8623
795.983	122.283
798.875	63.7812
801.768	108.059
804.661	169.276
807.553	77.751
810.446	50.1475
813.339	92.7754
816.232	127.157
819.124	53.4385
822.017	42.3721
824.91	91.751
827.802	56.8721
830.695	159.605
833.588	11.3721
836.481	43.706
839.373	46.334
842.266	6.35254
845.159	63.8711
848.051	33.4307
850.944	106.433
853.837	29.5137
856.729	23.541
859.622	4.97559
862.515	73.3506
865.408	48.3643
868.3	35.5215
871.193	28.4365
874.086	83.459
876.978	77.3193
879.871	37.29
882.764	58.0576
885.656	116.548
888.549	126.704
891.442	136.231
894.335	58.1582
897.227	83.9131
900.12	67.4736
903.013	28.3145
905.905	105.414
908.798	3.95801
911.691	113.501
914.583	140.953
917.476	32.7139
920.369	81.0186
923.261	115.961
926.154	20.9092
929.047	41.5605
931.94	37.6611
934.832	62.8809
937.725	4.90625
940.618	100.314
943.51	95.0205
946.403	91.1621
949.296	109.319
952.188	4.87109
955.081	102.397
957.974	78.7285
960.867	46.5898
963.759	73.1914
966.652	81.043
969.545	54.6533
972.437	43.2832
975.33	15.6279
978.223	101.054
981.115	67.832
984.008	125.108
986.901	16.3311
989.794	46.7783
992.686	91.2539
995.579	59.0791
998.472	64.7305
1001.36	8.20801
1004.26	94.3008
1007.15	69.5967
1010.04	51.9297
1012.93	140.492
1015.83	113.888
1018.72	1.93652
1021.61	31.3848
1024.51	27.377
1027.4	90.7412
1030.29	103.151
1033.18	87.7793
1036.08	77.4014
1038.97	106.376
1041.86	53.5107
1044.76	2.17676
1047.65	53.9453
1050.54	91.4307
1053.43	35.4502
1056.33	111.412
1059.22	129.363
1062.11	100.968
1065	4.19238
1067.9	52.5498
1070.79	57.8916
1073.68	21.5713
1076.58	74.3232
1079.47	4.71973
1082.36	40.2559
1085.25	119.539
1088.14	60.9365
1091.04	55.5518
1093.93	143.733
1096.82	89.9922
1099.72	4.85254
1102.61	71.5996
1105.5	65.7373
1108.39	86.3848
1111.29	84.2451
1114.18	57.3037
1117.07	32.3603
1119.96	78.9316
1122.86	56.4522
1125.75	41.6475
1128.64	24.4707
1131.54	40.7451
1134.43	25.335
1137.32	56.1719
1140.21	16.3145
1143.11	71.1494
1146	71.0039
1148.89	21.3936
1151.79	64.9307
1154.68	8.8418
1157.57	17.5566
1160.46	85.7676
1163.36	63.9512
1166.25	77.3418
1169.14	103.062
1172.03	86.1231
1174.93	11.3037
1177.82	84.9023
1180.71	62.1738
1183.6	85.1738
1186.5	81.8916
1189.39	109.316
1192.28	90.5967
1195.17	84.0088
1198.07	70.9111
1200.96	47.8516
1203.85	37.1435
1206.75	84.0186
1209.64	90.3887
1212.53	103.788
1215.42	106.208
1218.32	18.9629
1221.21	75.9824
1224.1	11.0098
1226.99	129.274
1229.89	85.8418
1232.78	119.186
1235.67	118.034
