Measurement: Raman, 532 nm, unoriented, Raman Data Processed
Mineral: Asbolane
Rruff sample: R070359
Ideal chemistry: Mn^4+^(O,OH)_2_(Co^3+^,Ni^2+^,Mg,Ca)_x_(OH)_2x_nH_2_O
Locality: Hachberg, Saint Avold, Moselle, France
Source: Michael Scott
Description: Thin black platelets coating grains of quartz
Raman shift (cm-1)	intensity
166.054	0
168.946	29.9437
171.839	67.4016
174.732	30.4196
177.625	19.3011
180.517	7.91296
183.41	33.2699
186.303	2.0863
189.195	44.6289
192.088	29.8592
194.981	23.4663
197.874	29.5283
200.766	28.1906
203.659	59.3865
206.552	54.4383
209.444	52.9471
212.337	58.9447
215.23	47.6378
218.122	39.8005
221.015	15.3953
223.908	27.9247
226.8	5.4397
229.693	40.8595
232.586	11.4961
235.479	34.6448
238.371	41.2054
241.264	0.103149
244.157	15.999
247.049	21.04
249.942	41.4773
252.835	35.187
255.727	86.1492
258.62	81.7237
261.513	33.6915
264.406	36.4744
267.298	81.9551
270.191	85.1165
273.084	37.4708
275.976	59.1658
278.869	36.5267
281.762	50.8735
284.655	10.8411
287.547	21.9473
290.44	34.8679
293.333	7.42505
296.225	33.8209
299.118	49.8579
302.011	43.9094
304.904	12.1854
307.796	20.7728
310.689	20.7653
313.582	7.75427
316.474	15.1359
319.367	27.8173
322.26	37.0936
325.152	11.0702
328.045	3.95825
330.938	9.99316
333.83	28.3894
336.723	16.9028
339.616	27.4213
342.509	68.0305
345.401	51.829
348.294	52.7398
351.187	31.2754
354.079	45.2579
356.972	12.7985
359.865	29.6829
362.757	16.2071
365.65	10.8893
368.543	34.2985
371.436	56.5149
374.328	50.6556
377.221	36.5272
380.114	34.1127
383.006	32.7484
385.899	66.6138
388.792	54.171
391.685	40.1227
394.577	24.252
397.47	39.2371
400.363	38.0016
403.255	17.484
406.148	35.7732
409.041	0.775757
411.933	60.2723
414.826	4.24573
417.719	35.0651
420.611	45.9684
423.504	13.7179
426.397	17.1207
429.29	48.6055
432.182	29.0204
435.075	43.3369
437.968	36.9441
440.86	39.0923
443.753	37.3816
446.646	30.7092
449.538	55.6812
452.431	80.4971
455.324	105.384
458.217	123.304
461.109	159.474
464.002	151.028
466.895	123.303
469.787	88.8093
472.68	85.4795
475.573	68.4519
478.466	56.103
481.358	38.9395
484.251	8.0083
487.144	56.1045
490.036	34.4795
492.929	33.6352
495.822	12.2712
498.714	13.5608
501.607	59.9453
504.5	25.3728
507.393	5.23486
510.285	3.35644
513.178	9.42822
516.071	22.9468
518.963	61.1243
521.856	14.6973
524.749	13.5945
527.641	30.5278
530.534	25.3943
533.427	52.0564
536.32	76.22
539.212	123.717
542.105	141.164
544.998	138.512
547.89	128.066
550.783	179.755
553.676	122.706
556.568	128.5
559.461	154.44
562.354	133.291
565.247	127.391
568.139	129.433
571.032	141.261
573.925	123.17
576.817	143.844
579.71	115.851
582.603	182.884
585.495	162.243
588.388	206.844
591.281	168.553
594.174	202.185
597.066	207.356
599.959	184.576
602.852	190.06
605.744	205.173
608.637	213.892
611.53	222.358
614.423	164.576
617.315	187.006
620.208	163.533
623.101	154.288
625.993	122.566
628.886	116.656
631.779	119.017
634.671	92.1873
637.564	81.0571
640.457	88.0286
643.35	81.979
646.242	85.1958
649.135	50.1831
652.028	63.3235
654.92	63.0859
657.813	30.8486
660.706	73.0281
663.598	44.9705
666.491	26.1641
669.384	30.2996
672.277	41.0874
675.169	23.103
678.062	10.9011
680.955	11.7705
683.847	47.3037
686.74	50.1352
689.633	14.9793
692.525	9.83008
695.418	12.8464
698.311	27.6045
701.204	15.76
704.096	15.8442
706.989	6.49829
709.882	19.1111
712.774	7.50073
715.667	10.9207
718.56	7.43408
721.452	8.5459
724.345	5.87793
727.238	33.3748
730.131	24.0789
733.023	36.7874
735.916	27.3096
738.809	37.9597
741.701	35.9385
744.594	63.3887
747.487	24.5586
750.38	24.3408
753.272	53.3784
756.165	25.4238
759.058	45.2385
761.95	44.2615
764.843	14.8015
767.736	41.8938
770.628	49.1255
773.521	33.5422
776.414	10.3123
779.307	19.4885
782.199	62.0457
785.092	27.2805
787.985	39.0945
790.877	47.1211
793.77	41.6523
796.663	19.8674
799.555	33.626
802.448	37.7119
805.341	20.5955
808.234	37.3225
811.126	47.8899
814.019	78.4893
816.912	40.2073
819.804	29.1958
822.697	25.8743
825.59	35.3379
828.482	50.5205
831.375	40.7014
834.268	37.3467
837.16	24.3049
840.053	27.7859
842.946	10.9431
845.839	45.6523
848.731	30.6721
851.624	65.8806
854.517	14.1272
857.409	38.4473
860.302	22.6311
863.195	35.3557
866.087	59.1043
868.98	58.7441
871.873	28.5857
874.766	25.8347
877.658	23.6602
880.551	11.1816
883.444	53.5413
886.337	18.7605
889.229	23.9683
892.122	31.156
895.015	52.97
897.907	55.9844
900.8	73.8892
903.693	14.2351
906.585	59.0896
909.478	31.1094
912.371	41.6721
915.264	46.343
918.156	25.7942
921.049	0.014648
923.942	39.969
926.834	40.291
929.727	67.1663
932.62	49.395
935.512	7.08447
938.405	76.5251
941.298	25.1724
944.191	46.6477
947.083	37.887
949.976	52.752
952.869	39.1704
955.761	11.2622
958.654	23.0569
961.547	19.6443
964.439	36.9397
967.332	61.7783
970.225	15.5859
973.117	89.959
976.01	41.8008
978.903	41.0901
981.796	40.9153
984.688	67.9497
987.581	7.35913
990.474	41.7671
993.366	36.1148
996.259	56.8103
999.152	49.6582
1002.04	17.4883
1004.94	61.5984
1007.83	14.552
1010.72	29.5891
1013.62	19.1167
1016.51	15.3154
1019.4	65.2976
1022.29	73.3569
1025.19	65.1438
1028.08	67.1484
1030.97	19.0571
1033.86	22.4912
1036.76	0.322266
1039.65	59.9961
1042.54	36.9265
1045.43	21.9521
1048.33	13.9675
1051.22	38.8157
1054.11	4.3042
1057.01	56.794
1059.9	34.136
1062.79	43.4744
1065.68	37.0308
1068.58	3.41382
1071.47	25.1741
1074.36	99.4001
1077.26	5.75122
1080.15	36.971
1083.04	14.1721
1085.93	27.9753
1088.83	23.9514
1091.72	44.4622
1094.61	12.2087
1097.5	47.0642
1100.4	30.6692
1103.29	48.1694
1106.18	50.7673
1109.07	0.433838
1111.97	13.7275
1114.86	48.1182
1117.75	1.08765
1120.64	56.4016
1123.54	38.0359
1126.43	24.9944
1129.32	41.4226
1132.22	13.8826
1135.11	21.4651
1138	31.3738
1140.89	39.9658
1143.79	57.2593
1146.68	59.3191
1149.57	3.62842
1152.46	38.9333
1155.36	9.36841
1158.25	47.5303
1161.14	39.042
1164.04	12.9219
1166.93	45.6724
1169.82	5.67993
1172.71	36.7473
1175.61	44.22
1178.5	65.55
1181.39	42.2888
1184.29	26.5276
1187.18	31.9636
1190.07	60.4148
1192.96	28.8733
1195.86	6.84424
1198.75	23.2844
1201.64	45.3147
1204.53	40.5378
1207.43	32.8706
1210.32	8.12842
1213.21	46.7385
1216.1	20.8555
1219	46.5427
1221.89	42.8298
1224.78	42.0054
1227.67	35.0447
1230.57	53.1279
1233.46	60.28
1236.35	22.2854
1239.25	1.40137
1242.14	36.4036
1245.03	59.1709
1247.92	76.3916
1250.82	66.3186
1253.71	11.7786
1256.6	1.82446
1259.49	10.7722
1262.39	25.7788
1265.28	15.634
1268.17	67.9192
1271.07	27.3235
1273.96	2.10205
1276.85	0.665771
1279.74	34.6382
1282.64	63.6145
1285.53	53.4797
1288.42	39.5593
1291.32	48.0723
1294.21	32.1035
