Measurement: Raman, 785 nm, unoriented, Raman Data Processed
Mineral: Asbolane
Rruff sample: R070359
Ideal chemistry: Mn^4+^(O,OH)_2_(Co^3+^,Ni^2+^,Mg,Ca)_x_(OH)_2x_nH_2_O
Locality: Hachberg, Saint Avold, Moselle, France
Source: Michael Scott
Description: Thin black platelets coating grains of quartz
Raman shift (cm-1)	intensity
209.247	0
212.139	17.2852
215.032	13.459
217.925	174.367
220.818	126.195
223.71	340.414
226.603	328.943
229.496	139.394
232.388	224.094
235.281	279.648
238.174	234.092
241.066	351.611
243.959	386.647
246.852	300.022
249.745	279.791
252.637	192.557
255.53	267.141
258.423	318.773
261.315	330.994
264.208	353.016
267.101	353.693
269.993	327.801
272.886	259.455
275.779	292.252
278.672	183.85
281.564	309.533
284.457	300.129
287.35	304.828
290.242	251.156
293.135	228.59
296.028	131.334
298.921	73.6269
301.813	225.469
304.706	267.248
307.599	285.555
310.491	308.611
313.384	134.371
316.277	69.0566
319.169	121.715
322.062	26.9766
324.955	161.467
327.847	238.379
330.74	149.662
333.633	14.2598
336.526	192.301
339.418	4.08984
342.311	121.031
345.204	100.047
348.096	55.8652
350.989	162.478
353.882	154.623
356.774	14.7148
359.667	98.5019
362.56	126.422
365.452	9.3457
368.345	9.59375
371.238	140.879
374.131	121.363
377.023	150.836
379.916	126.283
382.809	73.3164
385.701	11.127
388.594	45.3418
391.487	230.674
394.38	94.6953
397.272	149.141
400.165	180.211
403.058	47.0371
405.95	224.228
408.843	22.5117
411.736	43.5176
414.628	74.0586
417.521	84.166
420.414	157.982
423.307	116.59
426.199	4.5332
429.092	33.7559
431.985	9.91211
434.877	229.84
437.77	203.529
440.663	171.244
443.555	76.8672
446.448	35.377
449.341	122.506
452.234	186.348
455.126	145.322
458.019	204.469
460.912	128.484
463.804	196
466.697	78.4648
469.59	225.707
472.483	139.457
475.375	233.387
478.268	157.441
481.161	35.9805
484.053	82.8555
486.946	103.426
489.839	159.039
492.731	188.965
495.624	249.34
498.517	62.8867
501.409	13.7969
504.302	105.977
507.195	167.387
510.088	219.902
512.98	130.336
515.873	244.094
518.766	76.7305
521.658	116.465
524.551	264
527.444	82.1602
530.337	166.191
533.229	236.18
536.122	135.988
539.015	161.106
541.907	192.391
544.8	109.512
547.693	226.797
550.585	39.4844
553.478	88.4531
556.371	28.0703
559.263	159.25
562.156	181.008
565.049	178.762
567.942	42.2188
570.834	11.4141
573.727	4.67578
576.62	46.7188
579.512	153.746
582.405	243.898
585.298	237.254
588.19	149.766
591.083	106.109
593.976	50.1211
596.869	86.5312
599.761	171.594
602.654	173.445
605.547	283.945
608.439	176.078
611.332	164.051
614.225	49.6953
617.117	66.4844
620.01	212.66
622.903	29.2148
625.795	161.602
628.688	93.043
631.581	27.6445
634.474	5.07812
637.366	69.6953
640.259	120.93
643.152	197.606
646.044	162.629
648.937	150.371
651.83	90.2148
654.722	34.6523
657.615	99.1914
660.508	58.2305
663.401	16.2852
666.293	102.07
669.186	93.9414
672.079	100.91
674.971	175.356
677.864	182.812
680.757	114.273
683.649	174.715
686.542	110.598
689.435	35.4961
692.328	34.8516
695.22	147.336
698.113	299.359
701.006	241.555
703.898	177.559
706.791	99.1719
709.684	234.902
712.577	232.723
715.469	150.305
718.362	60.6328
721.255	121.375
724.147	436.777
727.04	14.2109
729.933	120.934
732.825	49.2773
735.718	155.559
738.611	198.609
741.504	129.797
744.396	148.254
747.289	237.285
750.182	145.559
753.074	99.8438
755.967	114.16
758.86	59.3203
761.752	65.4219
764.645	78.6445
767.538	89.75
770.431	90.6875
773.323	66.2031
776.216	164.789
779.109	36.1719
782.001	39.8086
784.894	107.199
787.787	198.207
790.679	171.465
793.572	66.7188
796.465	109.606
799.357	57.25
802.25	84.1484
805.143	42.6953
808.036	105.824
810.928	80.4766
813.821	1.88281
816.714	27.6484
819.606	130.516
822.499	129.25
825.392	38.1641
828.284	80.2227
831.177	118.356
834.07	35.0742
836.963	104.809
839.855	166.035
842.748	134.547
845.641	203.418
848.533	148.219
851.426	97.3516
854.319	208.582
857.212	243.426
860.104	8.21094
862.997	194.914
865.89	48.0469
868.782	283.727
871.675	40.875
874.568	179.773
877.46	123.898
880.353	88.2617
883.246	145.801
886.139	157.832
889.031	227.793
891.924	176.113
894.817	151.219
897.709	152.832
900.602	112.586
903.495	110.754
906.388	223.953
909.28	133.93
912.173	164.836
915.066	118.207
917.958	199.41
920.851	103.871
923.744	84.0977
926.636	36.5234
929.529	155.219
932.422	257.242
935.314	103.824
938.207	33.0625
941.1	49.3789
943.993	182.723
946.885	142.516
949.778	7.22266
952.671	109.191
955.563	205.922
958.456	275.598
961.349	44.8633
964.241	219.637
967.134	190.141
970.027	150.609
972.92	57.5273
975.812	167.039
978.705	188.922
981.598	300.402
984.49	269.402
987.383	111.512
990.276	137.801
993.168	131.234
996.061	245.273
998.954	164.973
1001.85	72.3398
1004.74	70.8906
1007.63	55.043
1010.52	100.781
1013.42	120.731
1016.31	231.09
1019.2	188.731
1022.1	133.961
1024.99	129.246
1027.88	129.219
1030.77	63.2852
1033.67	144.144
1036.56	87.1602
1039.45	122.445
1042.34	128.125
1045.24	159.738
1048.13	232.836
1051.02	191.078
1053.91	92.7969
1056.81	82.6641
1059.7	198.828
1062.59	179.926
1065.49	234.738
1068.38	6.28906
1071.27	155.738
1074.16	302.133
1077.06	198.688
1079.95	133
1082.84	112.402
1085.73	48.1094
1088.63	144.84
1091.52	166.57
1094.41	249.91
1097.31	253.734
1100.2	163.723
1103.09	189.539
1105.98	132.848
1108.88	84.5781
1111.77	159.852
1114.66	353.387
1117.56	79.0508
1120.45	183.199
1123.34	258.852
1126.23	34.6289
1129.12	86.0352
1132.02	129.285
1134.91	216.926
1137.8	115.617
1140.7	172.027
1143.59	23.1719
1146.48	216.098
1149.37	196.801
1152.27	52.5781
1155.16	140.16
1158.05	95.9141
1160.94	156.769
1163.84	179.356
1166.73	186.262
1169.62	53.6328
1172.52	236.801
1175.41	77.4609
1178.3	229.004
1181.19	134.551
1184.09	307.219
1186.98	196.969
1189.87	74.293
1192.77	160.691
1195.66	89.3359
1198.55	233.625
1201.44	177.305
1204.34	185.109
1207.23	28.6211
1210.12	313.41
1213.01	355.504
1215.91	188.352
1218.8	81.2305
1221.69	160.141
1224.58	79.2578
1227.48	104.781
1230.37	65.9219
