Measurement: Raman, 785 nm, unoriented, Raman Data Processed
Mineral: Aschamalmite
Rruff sample: R060690
Ideal chemistry: Pb^2+^_6-3x_Bi^3+^_2+x_S^2-^_9_
Locality: Ascham Alp, Untersulzbach Valley, Salzburg, Austria
Source: Michael Scott
Description: Lead gray metallic prismatic crystals in veins in quartz
Raman shift (cm-1)	intensity
140.812	0
143.705	54.838
146.598	139.903
149.49	264.035
152.383	311.315
155.276	285.134
158.168	240.1
161.061	219.545
163.954	254.803
166.846	256.859
169.739	363.442
172.632	294.295
175.525	305.302
178.417	310.747
181.31	300.899
184.203	339.587
187.095	329.389
189.988	336.621
192.881	329.133
195.773	346.748
198.666	347.216
201.559	382.821
204.452	373.322
207.344	375.987
210.237	353.574
213.13	385.57
216.022	388.223
218.915	378.667
221.808	422.153
224.7	455.359
227.593	472.715
230.486	476.182
233.378	454.391
236.271	531.238
239.164	518.862
242.057	552.93
244.949	533.213
247.842	528.48
250.735	559.07
253.627	519.822
256.52	509.069
259.413	463.215
262.306	418.399
265.198	417.589
268.091	417.789
270.984	401.876
273.876	436.267
276.769	437.865
279.662	471.355
282.554	466.17
285.447	423.825
288.34	351.015
291.233	315.179
294.125	237.581
297.018	201.425
299.911	169.886
302.803	166.821
305.696	166.703
308.589	145.182
311.481	131.187
314.374	115.687
317.267	69.087
320.159	54.496
323.052	38.871
325.945	50.898
328.838	1.246
331.73	27.935
334.623	15.341
337.516	16.557
340.408	4.781
343.301	27.748
346.194	4.055
349.086	20.468
351.979	12.691
354.872	4.554
357.765	12.883
360.657	12.109
363.55	39.586
366.443	5.547
369.335	15.473
372.228	39.886
375.121	1.84
378.013	15.099
380.906	3.686
383.799	26.154
386.692	1.718
389.584	18.865
392.477	17.53
395.37	10.986
398.262	10.762
401.155	26.587
404.048	63.495
406.94	43.576
409.833	62.948
412.726	21.759
415.619	24.288
418.511	19.3
421.404	10.587
424.297	12.816
427.189	50.702
430.082	1.163
432.975	14.907
435.867	18.364
438.76	124.035
441.653	37.707
444.546	38.789
447.438	59.171
450.331	40.495
453.224	72.403
456.116	36.517
459.009	48.721
461.902	10.689
464.795	19.393
467.687	34.373
470.58	17.909
473.473	24.416
476.365	61.414
479.258	33.769
482.151	25.917
485.043	75.359
487.936	63.537
490.829	48.43
493.722	22.364
496.614	67.531
499.507	57.254
502.4	44.194
505.292	44.045
508.185	38.398
511.078	17.147
513.971	26.017
516.863	30.298
519.756	30.861
522.649	77.267
525.541	52.802
528.434	15.32
531.327	11.923
534.219	28.445
537.112	5.053
540.005	29.256
542.898	5.355
545.79	29.163
548.683	9.789
551.576	3.472
554.468	23.079
557.361	0.588
560.254	34.831
563.146	19.633
566.039	5.735
568.932	12.652
571.825	49.406
574.717	59.757
577.61	27.898
580.503	51.943
583.395	11.962
586.288	20.893
589.181	37.048
592.073	0.024
594.966	36.318
597.859	7.079
600.752	5.185
603.644	4.968
606.537	26.816
609.43	41.836
612.322	45.293
615.215	1.923
618.108	5.087
621	43.859
623.893	15.605
626.786	27.471
629.679	7.622
632.571	2.844
635.464	37.442
638.357	26.503
641.249	4.844
644.142	22.08
647.035	0.99
649.927	26.233
652.82	10.7
655.713	19.993
658.606	31.459
661.498	20.337
664.391	48.419
667.284	26.965
670.176	9.447
673.069	12.602
675.962	48.145
678.854	19.8
681.747	41.328
684.64	6.644
687.532	25.105
690.425	12.259
693.318	62.706
696.211	11.387
699.103	22.244
701.996	42.775
704.889	62.611
707.781	23.539
710.674	17.233
713.567	14.28
716.459	1.602
719.352	32.495
722.245	35.733
725.138	65.008
728.03	18.902
730.923	30.365
733.816	23.879
736.708	14.57
739.601	45.549
742.494	24.25
745.386	11.211
748.279	32.062
751.172	59.836
754.065	0.289
756.957	16.048
759.85	82.685
762.743	11.371
765.635	20.158
768.528	65.799
771.421	33.647
774.313	13.484
777.206	42.731
780.099	11.383
782.992	23.117
785.884	9.523
788.777	46.939
791.67	7.136
794.562	16.99
797.455	33.949
800.348	8.136
803.24	14.514
806.133	33.847
809.026	47.028
811.919	21.92
814.811	36.781
817.704	46.652
820.597	38.034
823.489	3.093
826.382	52.472
829.275	9.273
832.167	62.039
835.06	53.185
837.953	5.408
840.846	41.732
843.738	21.074
846.631	43.411
849.524	31.682
852.416	30.034
855.309	38.025
858.202	18.139
861.094	32.633
863.987	10.441
866.88	24.113
869.773	28.537
872.665	11.33
875.558	18.287
878.451	27.94
881.343	34.433
884.236	44.183
887.129	44.627
890.021	46.425
892.914	69.247
895.807	64.75
898.7	28.319
901.592	36.323
904.485	20.366
907.378	38.043
910.27	19.699
913.163	17.115
916.056	26.568
918.948	33.54
921.841	41.735
924.734	61.767
927.627	91.33
930.519	38.081
933.412	52.325
936.305	49.395
939.197	28.404
942.09	32.011
944.983	40.527
947.875	53.833
950.768	25.722
953.661	0.491
956.554	47.062
959.446	11.867
962.339	71.979
965.232	55.053
968.125	24.816
971.017	37.842
973.91	8.878
976.803	11.974
979.695	40.373
982.588	17.674
985.481	35.263
988.373	25.259
991.266	19.024
994.159	5.244
997.052	32.218
999.944	22.177
1002.84	22.115
1005.73	46.503
1008.62	63.352
1011.51	10.653
1014.41	23.233
1017.3	44.374
1020.19	15.059
1023.09	10.258
1025.98	0.715
1028.87	37.32
1031.76	79.476
1034.66	46.725
1037.55	38.644
1040.44	43.945
1043.34	42.868
1046.23	57.049
1049.12	54.077
1052.01	36.532
1054.9	55.553
1057.8	48.486
1060.69	5.126
1063.58	23.089
1066.48	27.549
1069.37	47.311
1072.26	17.694
1075.15	37.908
1078.05	63.636
1080.94	51.451
1083.83	58.359
1086.72	49.298
1089.62	49.367
1092.51	12.529
1095.4	41.084
1098.3	22.894
1101.19	0.942
1104.08	26.755
1106.97	39.593
1109.87	43.029
1112.76	14.85
1115.65	26.008
1118.55	47.153
1121.44	46.947
1124.33	10.939
1127.22	94.422
1130.12	24.58
1133.01	7.442
1135.9	25.766
1138.79	12.162
1141.69	22.175
1144.58	33.529
1147.47	46.769
1150.37	44.9
1153.26	86.208
1156.15	15.661
1159.04	59.062
1161.93	47.722
1164.83	50.055
1167.72	23.836
1170.61	40.788
1173.51	6.356
1176.4	38.948
1179.29	2.056
1182.18	3.677
1185.08	18.415
1187.97	58.296
1190.86	52.783
1193.76	38.828
1196.65	36.895
1199.54	42.234
1202.43	3.675
1205.33	17.536
1208.22	10.413
1211.11	45.667
1214	13.533
1216.9	21.531
1219.79	30.96
1222.68	0.02
1225.58	67.058
1228.47	23.615
1231.36	31.01
1234.25	38.898
1237.15	12.851
1240.04	14.562
1242.93	33.789
1245.82	9.09
1248.72	15.549
1251.61	10.841
1254.5	10.088
1257.39	11.775
1260.29	9.764
1263.18	25.761
1266.07	14.733
1268.96	1.446
