Measurement: Raman, 532 nm, unoriented, Raman Data Processed
Mineral: Aschamalmite
Rruff sample: R060690
Ideal chemistry: Pb^2+^_6-3x_Bi^3+^_2+x_S^2-^_9_
Locality: Ascham Alp, Untersulzbach Valley, Salzburg, Austria
Source: Michael Scott
Description: Lead gray metallic prismatic crystals in veins in quartz
Raman shift (cm-1)	intensity
122.487	0
125.38	11.926
128.273	4.05695
131.165	8.18781
134.058	2.87415
136.951	39.5012
139.843	61.3683
142.736	20.1251
145.629	53.289
148.521	39.7094
151.414	34.757
154.307	33.9092
157.2	6.37585
160.092	31.0263
162.985	23.1188
165.878	72.6983
168.77	7.19678
171.663	15.7128
174.556	4.07654
177.449	9.50824
180.341	46.1178
183.234	19.7354
186.127	43.5123
189.019	68.1679
191.912	66.4936
194.805	58.2552
197.697	74.8218
200.59	64.3417
203.483	82.496
206.376	59.144
209.268	86.4425
212.161	73.1534
215.054	53.0695
217.946	81.4316
220.839	71.0006
223.732	47.925
226.624	45.336
229.517	43.6064
232.41	70.9174
235.303	65.9061
238.195	63.7788
241.088	61.6192
243.981	69.1078
246.873	74.0745
249.766	87.7709
252.659	71.401
255.551	65.6665
258.444	42.8671
261.337	29.7811
264.229	54.2607
267.122	48.4675
270.015	65.8119
272.908	70.8329
275.8	80.4661
278.693	79.2753
281.586	79.1454
284.478	79.8524
287.371	56.551
290.264	36.1899
293.156	15.9775
296.049	19.0633
298.942	25.9564
301.835	6.84717
304.727	7.68903
307.62	10.8654
310.513	25.1258
313.405	41.516
316.298	5.74142
319.191	25.6306
322.083	27.5447
324.976	31.9284
327.869	4.98935
330.762	28.2787
333.654	36.6828
336.547	14.9045
339.44	6.44229
342.332	7.65262
345.225	10.3035
348.118	1.22296
351.01	20.422
353.903	48.5207
356.796	71.1509
359.688	39.3813
362.581	65.3237
365.474	19.0813
368.366	52.6866
371.259	43.4781
374.152	35.2974
377.045	62.8965
379.937	23.8026
382.83	18.4172
385.723	28.1589
388.615	40.7193
391.508	41.3205
394.401	27.6227
397.293	35.9622
400.186	29.5588
403.079	30.2294
405.972	46.5799
408.864	47.5463
411.757	43.996
414.65	51.0009
417.542	45.7687
420.435	34.8934
423.328	6.97079
426.22	57.6003
429.113	0.323395
432.006	11.3806
434.899	29.382
437.791	33.8324
440.684	20.5979
443.577	37.8604
446.469	35.6246
449.362	41.9016
452.255	58.5472
455.147	28.4221
458.04	46.4271
460.933	47.6906
463.826	20.5182
466.718	47.0325
469.611	40.857
472.504	15.3822
475.396	11.235
478.289	32.554
481.182	11.8209
484.074	3.81085
486.967	28.2967
489.86	43.4778
492.753	54.2439
495.645	19.1068
498.538	42.1713
501.431	13.0393
504.323	52.2072
507.216	41.5146
510.109	13.0698
513.001	8.86417
515.894	7.77866
518.787	34.5152
521.68	37.7459
524.572	33.4824
527.465	33.2469
530.358	72.8319
533.25	7.60968
536.143	33.3188
539.036	14.8367
541.928	36.41
544.821	3.13538
547.714	37.9119
550.606	36.7667
553.499	9.49295
556.392	13.8205
559.284	44.7988
562.177	12.2317
565.07	45.2834
567.963	14.8657
570.855	0.482361
573.748	27.317
576.641	28.4046
579.533	32.4765
582.426	36.322
585.319	5.31711
588.211	38.1668
591.104	30.0508
593.997	24.866
596.89	23.2156
599.782	16.8402
602.675	16.3102
605.568	39.6441
608.46	41.2948
611.353	55.4082
614.246	58.3406
617.138	45.0791
620.031	35.3337
622.924	12.8166
625.817	48.056
628.709	39.7221
631.602	5.5629
634.495	30.9416
637.387	36.1016
640.28	17.7357
643.173	3.97568
646.065	1.93207
648.958	8.23325
651.851	10.621
654.744	28.6653
657.636	8.77969
660.529	44.4539
663.422	59.8247
666.314	26.4342
669.207	50.6393
672.1	25.3012
674.992	49.9698
677.885	45.1061
680.778	25.1197
683.67	5.8381
686.563	38.4716
689.456	11.6623
692.349	27.4271
695.241	35.4767
698.134	14.5436
701.027	35.4683
703.919	29.5013
706.812	35.1804
709.705	28.7146
712.597	60.9216
715.49	26.7919
718.383	28.6831
721.276	32.8792
724.168	29.3727
727.061	33.5765
729.954	57.9937
732.846	67.1559
735.739	38.0431
738.632	10.9097
741.524	44.9424
744.417	34.9736
747.31	66.2664
750.203	41.7907
753.095	21.6927
755.988	26.4176
758.881	70.5258
761.773	6.01065
764.666	2.1384
767.559	33.4871
770.451	28.3702
773.344	34.2747
776.237	60.3056
779.13	49.011
782.022	20.8933
784.915	52.535
787.808	43.6826
790.7	42.9329
793.593	40.2704
796.486	46.4385
799.378	32.6737
802.271	87.975
805.164	6.23706
808.057	0.893372
810.949	5.19635
813.842	7.74609
816.735	1.6189
819.627	49.2092
822.52	29.621
825.413	22.0657
828.305	2.93256
831.198	32.6078
834.091	35.6102
836.984	27.3231
839.876	4.5069
842.769	26.4891
845.662	48.8117
848.554	33.7391
851.447	24.1621
854.34	25.2269
857.232	40.0367
860.125	31.6412
863.018	26.9582
865.911	32.7724
868.803	33.848
871.696	18.7844
874.589	10.7897
877.481	37.6245
880.374	43.386
883.267	24.8294
886.159	20.9311
889.052	77.3513
891.945	38.33
894.838	42.9885
897.73	15.0968
900.623	41.3772
903.516	29.477
906.408	31.2051
909.301	16.4233
912.194	26.6572
915.086	26.1921
917.979	17.4788
920.872	42.0592
923.764	35.4183
926.657	9.20575
929.55	59.3176
932.443	31.1086
935.335	41.6193
938.228	57.7559
941.121	34.8492
944.013	26.3142
946.906	18.6836
949.799	41.6046
952.691	53.3705
955.584	36.8775
958.477	57.8635
961.37	37.4982
964.262	21.7958
967.155	14.3286
970.048	10.1502
972.94	56.8151
975.833	29.8038
978.726	83.8792
981.618	33.081
984.511	16.964
987.404	39.549
990.296	3.19202
993.189	29.1133
996.082	51.9061
998.974	35.824
1001.87	12.1685
1004.76	15.04
1007.65	29.3491
1010.54	41.0225
1013.44	21.8408
1016.33	12.0711
1019.22	24.8467
1022.12	34.768
1025.01	80.8257
1027.9	26.8084
1030.79	39.4073
1033.69	30.6575
1036.58	18.2901
1039.47	0.166748
1042.37	10.1111
1045.26	58.3991
1048.15	27.3801
1051.04	15.5908
1053.94	38.6569
1056.83	63.1512
1059.72	50.9556
1062.61	88.8551
1065.51	31.4747
1068.4	33.1934
1071.29	80.4568
1074.18	34.6802
1077.08	26.9487
1079.97	12.4816
1082.86	18.1005
1085.76	0.951599
1088.65	39.7212
1091.54	8.09528
1094.43	20.283
1097.33	33.9918
1100.22	56.6478
1103.11	57.2977
1106	51.4485
1108.9	107.831
1111.79	26.9787
1114.68	18.5613
1117.58	21.4459
1120.47	6.37231
1123.36	21.3636
1126.25	15.4164
1129.15	10.1631
1132.04	17.6862
1134.93	54.8745
1137.82	43.1249
1140.72	57.3066
1143.61	68.4193
1146.5	58.389
1149.39	23.1594
1152.29	32.0399
1155.18	38.9263
1158.07	7.9339
1160.97	9.87006
1163.86	26.5724
1166.75	15.6339
1169.64	47.0058
1172.54	63.6332
1175.43	77.5513
1178.32	44.119
1181.21	83.0187
1184.11	62.1643
1187	53.2559
1189.89	36.898
1192.79	11.9017
1195.68	80.5153
1198.57	22.9941
1201.46	51.9509
1204.36	64.8438
1207.25	35.6781
1210.14	31.2351
1213.03	52.6552
1215.93	27.7608
1218.82	65.6658
1221.71	4.8927
1224.61	58.5774
1227.5	11.4297
1230.39	16.9107
1233.28	23.6388
1236.18	56.8629
1239.07	15.5892
1241.96	42.4371
1244.85	36.5536
1247.75	9.68109
1250.64	43.6982
1253.53	23.4422
1256.42	27.8797
1259.32	2.11548
1262.21	19.7124
