Measurement: Raman, 780 nm, unoriented, Raman Data Processed
Mineral: Aurichalcite
Rruff sample: R050297
Ideal chemistry: Zn^2+^_5_(CO_3_)_2_(OH)_6_
Locality: 79 mine, 4th level, Hayden, Gila County, Arizona, USA
Source: George Godas, John Callahan
Description: Sprays of greenish blue lathlike crystals
Measured chemistry: (Zn_0.68_Cu_0.32_)_5_(CO_3_)_2_(OH)_6_
Raman shift (cm-1)	intensity
114.219	0
117.594	0.425015
120.968	0.15606
124.343	1.07992
127.718	1.37632
131.093	2.24054
134.468	2.5213
137.842	3.06475
141.217	1.9204
144.592	1.59772
147.967	1.13596
151.342	1.28696
154.716	1.95844
158.091	2.99333
161.466	3.18242
164.841	3.57479
168.216	2.89215
171.591	1.79748
174.965	1.64409
178.34	0.284415
181.715	0.286897
185.09	0.524792
188.465	0.316203
191.839	0.159031
195.214	0.814508
198.589	0.249289
201.964	0.525567
205.339	0.831873
208.714	1.11486
212.088	0.675858
215.463	0.283916
218.838	0.627572
222.213	0.488566
225.588	0.617447
228.962	1.20202
232.337	0.166878
235.712	0.891023
239.087	0.670096
242.462	0.248817
245.837	0.676684
249.211	0.803966
252.586	0.353794
255.961	0.492937
259.336	0.022891
262.711	0.405891
266.085	0.664288
269.46	0.311282
272.835	0.46631
276.21	0.116531
279.585	0.555535
282.959	0.717069
286.334	0.403326
289.709	0.849407
293.084	0.662217
296.459	0.152528
299.834	0.424547
303.208	1.07953
306.583	0.450818
309.958	1.27462
313.333	0.32895
316.708	0.879256
320.082	0.746338
323.457	0.8265
326.832	0.160214
330.207	0.501751
333.582	0.052433
336.957	0.113639
340.331	0.368005
343.706	0.11838
347.081	0.455156
350.456	0.158594
353.831	0.030914
357.205	0.572676
360.58	0.829921
363.955	0.732032
367.33	0.495824
370.705	0.764899
374.079	0.772173
377.454	1.06663
380.829	1.27379
384.204	0.759033
387.579	1.5321
390.954	0.520353
394.328	0.952619
397.703	0.261227
401.078	0.643518
404.453	0.219376
407.828	0.271446
411.202	0.344955
414.577	0.344687
417.952	0.400919
421.327	0.155813
424.702	0.163369
428.077	0.376459
431.451	0.866212
434.826	0.318157
438.201	0.420175
441.576	0.912205
444.951	0.72874
448.325	0.84703
451.7	0.331768
455.075	0.222189
458.45	1.50813
461.825	0.724458
465.2	0.67932
468.574	0.486172
471.949	0.597556
475.324	0.209231
478.699	0.079749
482.074	0.510825
485.449	0.570987
488.823	0.828982
492.198	0.760937
495.573	0.814163
498.948	0.330114
502.322	0.048998
505.697	0.574417
509.072	0.363192
512.447	0.810133
515.822	0.751757
519.197	1.04374
522.571	0.330993
525.946	0.695382
529.321	0.079188
532.696	0.144468
536.071	0.227542
539.446	0.033264
542.82	0.097538
546.195	0.584679
549.57	1.12379
552.945	0.633693
556.32	0.56596
559.694	0.329285
563.069	0.348165
566.444	0.824924
569.819	0.705327
573.194	0.228515
576.568	0.627512
579.943	0.600238
583.318	0.043645
586.693	0.885272
590.068	0.671545
593.443	0.012942
596.817	0.28889
600.192	0.44337
603.567	0.356026
606.942	0.500209
610.317	0.185591
613.692	0.776781
617.066	0.478595
620.441	0.503392
623.816	0.794608
627.191	0.933408
630.566	0.380679
633.94	0.123479
637.315	0.011029
640.69	0.729902
644.065	0.412749
647.44	0.67315
650.814	0.389887
654.189	0.379067
657.564	0.481764
660.939	0.364505
664.314	0.179858
667.688	0.477419
671.063	0.141292
674.438	0.478286
677.813	0.565563
681.188	0.424331
684.563	0.730359
687.937	0.143604
691.312	0.06401
694.687	0.30496
698.062	0.484375
701.437	0.873869
704.812	0.669131
708.186	1.25045
711.561	1.05921
714.936	0.24467
718.311	0.17837
721.686	0.314598
725.06	0.874098
728.435	1.5162
731.81	1.10275
735.185	0.955555
738.56	0.767125
741.934	0.455545
745.309	0.58781
748.684	0.371393
752.059	1.01968
755.434	0.319862
758.808	0.012823
762.183	0.05552
765.558	0.469212
768.933	0.162154
772.308	0.094258
775.683	0.081129
779.057	0.32511
782.432	0.592198
785.807	0.060135
789.182	0.563504
792.557	0.304655
795.932	0.204161
799.306	0.312081
802.681	0.455844
806.056	0.481775
809.431	0.475376
812.806	0.063879
816.18	0.8299
819.555	0.912699
822.93	0.712025
826.305	0.349871
829.68	0.720135
833.054	0.5636
836.429	0.99436
839.804	0.210531
843.179	0.392227
846.554	0.411174
849.929	0.973681
853.303	0.715438
856.678	0.562294
860.053	0.539296
863.428	1.02191
866.803	0.535462
870.178	0.502173
873.552	0.142082
876.927	0.671608
880.302	0.066164
883.677	0.570368
887.052	0.465606
890.426	0.492597
893.801	0.115648
897.176	0.275901
900.551	0.418825
903.926	0.355402
907.301	0.343588
910.675	0.398794
914.05	0.462853
917.425	0.376884
920.8	0.1917
924.175	0.197443
927.549	0.53225
930.924	1.15519
934.299	0.784954
937.674	0.586119
941.049	0.009005
944.423	0.006191
947.798	0.399889
951.173	0.219431
954.548	0.51794
957.923	0.682818
961.298	1.01144
964.672	0.383695
968.047	0.651658
971.422	0.131354
974.797	0.266402
978.172	0.238976
981.546	0.744573
984.921	0.297635
988.296	0.436458
991.671	0.678788
995.046	0.217735
998.42	0.452893
1001.79	0.525968
1005.17	0.362206
1008.54	0.379769
1011.92	0.801004
1015.29	0.360053
1018.67	0.122314
1022.04	0.400856
1025.42	0.559354
1028.79	0.429532
1032.17	0.111068
1035.54	0.241452
1038.92	0.309896
1042.29	0.394997
1045.67	1.25257
1049.04	0.865422
1052.42	0.925581
1055.79	1.92572
1059.17	1.95507
1062.54	2.83171
1065.92	2.55355
1069.29	2.72188
1072.67	2.71445
1076.04	1.25761
1079.42	0.75079
1082.79	0.562768
1086.17	0.685728
1089.54	0.277358
1092.91	0.727842
1096.29	0.235058
1099.66	0.279956
1103.04	0.257177
1106.41	0.671633
1109.79	0.514624
1113.16	0.065831
1116.54	0.509032
1119.91	0.679836
1123.29	0.17569
1126.66	0.081501
1130.04	0.191311
1133.41	0.077837
1136.79	0.414999
1140.16	0.326622
1143.54	0.305712
1146.91	0.650891
1150.29	0.607994
1153.66	0.803265
1157.04	1.0465
1160.41	0.066369
1163.79	0.768635
1167.16	0.84623
1170.54	0.820632
1173.91	0.736831
1177.29	0.742454
1180.66	0.675004
1184.04	0.731209
1187.41	0.507122
1190.79	0.671751
1194.16	0.411031
1197.54	0.510364
1200.91	0.251824
1204.28	0.550899
1207.66	0.718541
1211.03	0.190866
1214.41	0.567862
1217.78	0.009772
1221.16	0.481354
1224.53	0.353091
1227.91	0.549535
1231.28	0.417842
1234.66	1.02052
1238.03	0.102653
1241.41	0.682307
1244.78	0.731057
1248.16	0.76206
1251.53	0.081909
1254.91	0.572399
1258.28	0.215905
1261.66	0.663
1265.03	0.557653
1268.41	0.541134
1271.78	0.013197
1275.15	0.690192
1278.53	0.533831
1281.9	0.004674
1285.28	0.096478
