Measurement: Raman, 785 nm, unoriented, Raman Data Processed
Mineral: Avdoninite
Rruff sample: R070080
Ideal chemistry: K_2_Cu^2+^_5_Cl_8_(OH)_4_2H_2_O
Locality: main fracture, N breakthrough, Tolbachik Volcano, Kamchtka Peninsula, Russia
Source: Michael Scott
Description: Bright apple-green crust, co-type material, associated with pale bluish green eriochalcite
Raman shift (cm-1)	intensity
164.218	0
167.111	12.1826
170.004	1.00944
172.897	8.58466
175.789	5.53555
178.682	47.6663
181.575	50.9249
184.467	28.0744
187.36	57.2069
190.253	46.9876
193.145	53.0556
196.038	68.3584
198.931	70.3259
201.823	48.7853
204.716	63.2048
207.609	24.6266
210.502	26.7813
213.394	56.8589
216.287	22.6216
219.18	34.257
222.072	14.6466
224.965	42.4673
227.858	5.91255
230.75	37.3865
233.643	23.9615
236.536	34.7571
239.429	33.6512
242.321	62.9294
245.214	70.9426
248.107	52.391
250.999	59.4806
253.892	64.8593
256.785	73.9578
259.678	49.8257
262.57	60.8516
265.463	44.1888
268.356	50.7112
271.248	56.3038
274.141	24.7216
277.034	48.3791
279.926	59.5791
282.819	57.1814
285.712	70.6073
288.604	31.499
291.497	2.91733
294.39	31.4301
297.283	20.5509
300.175	7.90372
303.068	10.8879
305.961	14.9867
308.853	34.7446
311.746	52.3738
314.639	36.6357
317.531	80.5991
320.424	78.5298
323.317	116.624
326.21	137.426
329.102	161.59
331.995	112.998
334.888	59.1272
337.78	25.8852
340.673	10.8859
343.566	21.1245
346.459	29.0441
349.351	27.2774
352.244	8.2083
355.137	16.2568
358.029	12.0066
360.922	4.10265
363.815	22.112
366.707	23.9768
369.6	30.8564
372.493	17.4785
375.385	8.67995
378.278	14.849
381.171	5.44901
384.064	5.19749
386.956	2.13368
389.849	9.5347
392.742	16.5722
395.634	6.16504
398.527	12.8369
401.42	18.8016
404.312	19.7364
407.205	6.41766
410.098	40.3955
412.991	44.2599
415.883	58.3531
418.776	99.4355
421.669	65.5336
424.561	48.4887
427.454	47.8349
430.347	42.5785
433.24	45.3225
436.132	39.0479
439.025	16.6382
441.918	45.7419
444.81	44.8125
447.703	18.3703
450.596	18.9866
453.488	35.2558
456.381	39.853
459.274	25.1888
462.166	12.6276
465.059	3.05584
467.952	44.606
470.845	57.0228
473.737	14.7967
476.63	14.2351
479.523	34.9541
482.415	20.5989
485.308	28.8233
488.201	30.8327
491.094	11.2
493.986	44.8599
496.879	56.5113
499.772	55.2927
502.664	47.0368
505.557	56.5818
508.45	60.4362
511.342	29.7314
514.235	80.6488
517.128	83.7287
520.02	67.6984
522.913	22.3568
525.806	0.53788
528.699	11.6939
531.591	12.9122
534.484	26.7107
537.377	44.3434
540.269	20.8349
543.162	7.08329
546.055	21.401
548.947	43.6467
551.84	26.3988
554.733	39.5836
557.626	3.31082
560.518	24.5344
563.411	31.0055
566.304	57.6705
569.196	34.4731
572.089	43.504
574.982	54.9323
577.875	1.34161
580.767	16.7243
583.66	34.1005
586.553	35.4461
589.445	44.0353
592.338	29.8068
595.231	22.5264
598.123	41.203
601.016	54.2069
603.909	59.2901
606.802	10.0223
609.694	21.181
612.587	41.0369
615.48	33.8103
618.372	21.1225
621.265	29.2241
624.158	44.6987
627.05	39.978
629.943	38.139
632.836	23.5091
635.729	30.5669
638.621	38.893
641.514	19.2448
644.407	34.4815
647.299	46.5452
650.192	59.0853
653.085	1.28125
655.977	7.42164
658.87	25.9732
661.763	30.4822
664.655	28.4672
667.548	60.7743
670.441	19.513
673.334	31.3038
676.226	41.818
679.119	23.5268
682.012	36.4168
684.904	64.3751
687.797	17.5205
690.69	26.1508
693.582	21.3682
696.475	40.3378
699.368	11.0413
702.261	23.598
705.153	25.9383
708.046	28.4399
710.939	28.0712
713.831	0.65889
716.724	23.1837
719.617	11.024
722.51	29.652
725.402	51.9059
728.295	29.4555
731.188	13.4705
734.08	45.1915
736.973	60.8842
739.866	12.5491
742.758	25.5959
745.651	36.2836
748.544	33.431
751.437	5.72969
754.329	68.6603
757.222	26.1011
760.115	54.0904
763.007	40.9332
765.9	26.7094
768.793	41.1374
771.685	12.6074
774.578	43.8988
777.471	1.4912
780.364	15.0398
783.256	5.01739
786.149	26.9429
789.042	15.6081
791.934	3.30022
794.827	34.2585
797.72	47.9595
800.612	10.8904
803.505	48.6633
806.398	4.77265
809.29	55.8124
812.183	18.4188
815.076	46.0931
817.969	49.9515
820.861	80.4796
823.754	25.2471
826.647	58.7996
829.539	27.903
832.432	60.5279
835.325	63.3298
838.217	51.1507
841.11	56.9218
844.003	18.9069
846.896	0.57164
849.788	18.5701
852.681	15.1457
855.574	1.22944
858.466	12.4798
861.359	17.2428
864.252	34.8587
867.144	17.8511
870.037	7.86304
872.93	28.5959
875.823	65.5581
878.715	24.249
881.608	28.8343
884.501	44.3419
887.393	0.552803
890.286	44.5951
893.179	13.2011
896.072	41.6238
898.964	31.1064
901.857	42.6699
904.75	25.552
907.642	38.3704
910.535	36.1536
913.428	35.9187
916.32	49.5739
919.213	30.7478
922.106	53.6715
924.999	21.4451
927.891	30.1758
930.784	61.552
933.677	72.9646
936.569	42.4391
939.462	40.4653
942.355	50.8044
945.247	14.5354
948.14	16.7944
951.033	21.6304
953.926	1.60482
956.818	18.847
959.711	6.83833
962.604	29.3011
965.496	11.4932
968.389	23.9528
971.282	40.0881
974.174	15.4167
977.067	6.88537
979.96	23.342
982.852	11.1567
985.745	26.0657
988.638	4.12029
991.531	25.8014
994.423	1.11586
997.316	41.222
1000.21	25.3512
1003.1	28.7952
1005.99	31.8224
1008.89	8.44656
1011.78	23.352
1014.67	15.3558
1017.57	15.8861
1020.46	29.4928
1023.35	49.0364
1026.24	21.5814
1029.14	21.6751
1032.03	31.6963
1034.92	17.1054
1037.81	55.9649
1040.71	19.4131
1043.6	19.9975
1046.49	13.8222
1049.38	25.443
1052.28	0.288498
1055.17	32.2302
1058.06	41.6479
1060.95	38.6647
1063.85	42.8907
1066.74	66.1837
1069.63	18.7762
1072.53	31.9318
1075.42	63.0926
1078.31	38.7768
1081.2	36.004
1084.1	24.1186
1086.99	35.6678
1089.88	51.8092
1092.78	19.9024
1095.67	49.4004
1098.56	36.5971
1101.45	31.5855
1104.35	31.9931
1107.24	17.5196
1110.13	34.1516
1113.02	29.3484
1115.92	15.9854
1118.81	6.23246
1121.7	39.4469
1124.6	8.64605
1127.49	48.0207
1130.38	19.8536
1133.27	46.0298
1136.17	27.4574
1139.06	34.0225
1141.95	17.7984
1144.84	49.2941
1147.74	43.5078
1150.63	44.6097
1153.52	50.5937
1156.41	4.36868
1159.31	13.9392
1162.2	45.0562
1165.09	54.3612
1167.98	41.6937
1170.88	24.7785
1173.77	40.2273
1176.66	6.25685
1179.56	19.5369
1182.45	15.4509
1185.34	70.3813
1188.23	25.0686
1191.13	43.501
1194.02	10.6188
1196.91	14.2644
1199.81	14.1107
1202.7	0.85429
1205.59	14.0783
1208.48	25.0501
1211.38	77.1382
1214.27	43.8808
1217.16	38.711
1220.05	14.361
1222.95	22.3606
1225.84	20.4326
1228.73	54.034
1231.62	20.9656
1234.52	8.61297
1237.41	20.8032
1240.3	39.3837
1243.2	0.643326
