Measurement: Raman, 785 nm, unoriented, Raman Data Processed
Mineral: Awaruite
Rruff sample: R061020
Ideal chemistry: Ni_3_Fe
Locality: Oregon, USA
Source: Michael Scott
Description: Silver metallic massive pebbles with brownish-red oxidized coating, variety josephinite
Measured chemistry: light phase: (Ni_2.60_Fe_0.40_)_Σ=3_(Fe_0.93_Co_0.07_)_Σ=1_ ; the rim (dark phase) is a Ni-Fe-silicate
Raman shift (cm-1)	intensity
174.561	0
177.453	35.5591
180.346	18.6919
183.239	9.61328
186.131	28.7485
189.024	47.853
191.917	102.247
194.81	77.7075
197.702	102.863
200.595	132.701
203.488	104.472
206.38	61.9072
209.273	84.1743
212.166	40.106
215.058	49.3877
217.951	28.9766
220.844	66.9224
223.737	109.001
226.629	117.712
229.522	116.427
232.415	68.2769
235.307	117.915
238.2	86.1338
241.093	88.1099
243.985	91.8335
246.878	60.8418
249.771	102.418
252.663	72.416
255.556	148.679
258.449	167.167
261.342	183.498
264.234	169.602
267.127	137.543
270.02	103.405
272.912	126.751
275.805	71.5977
278.698	125.356
281.591	86.2256
284.483	114.851
287.376	7.33545
290.269	65.5552
293.161	1.02734
296.054	24.9229
298.947	9.60791
301.839	97.855
304.732	70.354
307.625	132.175
310.517	41.3359
313.41	60.2964
316.303	42.5449
319.195	14.2124
322.088	78.4092
324.981	184.207
327.874	259.468
330.766	360.103
333.659	417.19
336.552	449.103
339.444	322.884
342.337	203.439
345.23	114.613
348.123	108.31
351.015	113.982
353.908	116.328
356.801	38.2217
359.693	4.12891
362.586	43.3613
365.479	54.7275
368.371	8.46777
371.264	153.517
374.157	112.241
377.05	146.573
379.942	121.878
382.835	56.9985
385.728	119.692
388.62	125.258
391.513	51.687
394.406	170.204
397.298	201.499
400.191	128.313
403.084	16.2432
405.976	67.793
408.869	38.5928
411.762	60.669
414.655	93.9795
417.547	81.6694
420.44	100.075
423.333	93.2686
426.225	56.8608
429.118	23.2974
432.011	29.7773
434.904	9.7251
437.796	26.6763
440.689	94.6856
443.582	70.98
446.474	95.2095
449.367	63.1821
452.26	36.2105
455.152	27.8789
458.045	1.5166
460.938	80.1494
463.83	57.6416
466.723	55.854
469.616	39.6553
472.509	65.5469
475.401	16.4311
478.294	1.27393
481.187	17.9775
484.079	81.4585
486.972	48.29
489.865	123.188
492.757	112.838
495.65	7.49561
498.543	16.6206
501.436	29.9795
504.328	57.4214
507.221	38.876
510.114	9.50635
513.006	97.7446
515.899	60.0654
518.792	108.582
521.684	103.33
524.577	106.311
527.47	42.1196
530.362	37.1406
533.255	100.138
536.148	65.061
539.041	69.5034
541.933	1.01807
544.826	70.9946
547.719	37.0898
550.611	27.9375
553.504	47.0869
556.397	68.8496
559.29	66.2241
562.182	48.7339
565.075	57.6162
567.968	34.7715
570.86	18.2905
573.753	20.1108
576.646	18.6377
579.538	1.37402
582.431	18.6514
585.324	93.7764
588.217	41.7969
591.109	29.418
594.002	56.0571
596.895	70.7495
599.787	37.3032
602.68	37.8315
605.573	69.0557
608.466	109.382
611.358	99.0376
614.251	95.9097
617.144	60.8613
620.036	136.797
622.929	117.544
625.822	80.3525
628.714	65.1567
631.607	112.462
634.5	95.7759
637.393	129.045
640.285	97.0483
643.178	47.3491
646.071	134.368
648.963	104.96
651.856	103.061
654.749	120.914
657.641	139.283
660.534	128.413
663.427	197.231
666.319	215.776
669.212	271.915
672.105	268.077
674.997	310.002
677.89	374.692
680.783	231.33
683.676	155.196
686.568	174.963
689.461	85.4668
692.354	30.9995
695.246	109.715
698.139	108.918
701.032	38.8232
703.924	29.481
706.817	28.0727
709.71	4.85254
712.603	6.15039
715.495	53.9326
718.388	77.8643
721.281	29.9521
724.173	92.0649
727.066	64.2095
729.959	3.68799
732.851	56.477
735.744	76.8315
738.637	35.3975
741.53	55.9673
744.422	56.1733
747.315	91.3618
750.208	51.6148
753.1	45.4883
755.993	27.7568
758.886	56.4316
761.779	63.2685
764.671	55.0161
767.564	36.355
770.457	73.021
773.349	129.503
776.242	69.9297
779.135	92.4336
782.027	110.342
784.92	151.674
787.813	141.285
790.706	105.25
793.598	104.022
796.491	114.214
799.384	51.0195
802.276	41.793
805.169	90.9424
808.062	92.4404
810.954	102.415
813.847	153.061
816.74	95.103
819.633	68.6196
822.525	87.6836
825.418	9.9834
828.311	68.8184
831.203	29.0913
834.096	42.6724
836.989	33.3706
839.881	1.5874
842.774	18.3755
845.667	72.9409
848.559	45.6826
851.452	70.8057
854.345	94.2847
857.237	31.1138
860.13	42.0903
863.023	22.3428
865.916	68.9165
868.808	22.4155
871.701	4.26514
874.594	69.9697
877.486	33.3648
880.379	15.4619
883.272	1.09717
886.165	70.8848
889.057	45.0576
891.95	37.0327
894.843	23.1621
897.735	12.1748
900.628	4.54004
903.521	34.979
906.413	1.05566
909.306	79.7676
912.199	38.5894
915.092	86.8603
917.984	43.2803
920.877	89.0176
923.77	40.3643
926.662	33.7866
929.555	62.9785
932.448	89.2642
935.341	22.9414
938.233	9.73926
941.126	47.7339
944.019	42.1226
946.911	52.3457
949.804	101.049
952.697	7.06299
955.589	26.2036
958.482	95.3677
961.375	66.7505
964.268	26.8975
967.16	40.6768
970.053	63.2197
972.946	83.0903
975.838	40.3467
978.731	38.8057
981.624	46.3599
984.516	61.4502
987.409	104.64
990.302	0.743652
993.194	8.83496
996.087	52.8003
998.98	62.4385
1001.87	104.904
1004.76	111.123
1007.66	106.384
1010.55	83.5327
1013.44	123.235
1016.34	123.481
1019.23	84.3198
1022.12	76.1514
1025.01	30.4585
1027.91	19.228
1030.8	62.3701
1033.69	85.4795
1036.59	56.9268
1039.48	27.9722
1042.37	27.7637
1045.26	112.67
1048.16	28.019
1051.05	47.2725
1053.94	20.7065
1056.83	49.7725
1059.73	53.5078
1062.62	40.2217
1065.51	22.5898
1068.4	63.0283
1071.3	16.0762
1074.19	11.1919
1077.08	37.5322
1079.97	36.75
1082.87	74.5273
1085.76	21.2085
1088.65	20.3555
1091.55	39.0884
1094.44	69.0562
1097.33	74.1685
1100.22	19.8491
1103.12	42.7685
1106.01	75.499
1108.9	62.6904
1111.8	43.21
1114.69	83.8232
1117.58	48.3926
1120.47	77.0532
1123.37	68.3203
1126.26	38.127
1129.15	7.3335
1132.04	85.4111
1134.94	69.9067
1137.83	103.81
1140.72	3.85596
1143.62	73.2373
1146.51	54.4292
1149.4	57.2315
1152.29	46.1587
1155.19	25.0947
1158.08	24.3257
1160.97	10.2866
1163.86	98.0835
1166.76	51.0156
1169.65	22.7812
1172.54	48.2949
1175.43	43.8262
1178.33	62.542
1181.22	38.0981
1184.11	51.8208
1187.01	75.9937
1189.9	128.995
1192.79	64.8608
1195.68	72.519
1198.58	59.8633
1201.47	77.4443
1204.36	38.3643
1207.25	0.51123
1210.15	24.3584
1213.04	79.6611
1215.93	98.4995
1218.83	89.98
1221.72	114.726
1224.61	107.687
1227.5	80.5772
1230.4	80.8018
1233.29	80.9194
1236.18	2.6582
1239.07	4.32324
1241.97	54.8677
1244.86	128.78
1247.75	106.172
1250.64	114.731
1253.54	59.2568
1256.43	2.7915
1259.32	12.9365
1262.21	91.4038
1265.11	41.9648
1268	0
