Measurement: Raman, 532 nm, unoriented, Raman Data Processed
Mineral: Awaruite
Rruff sample: R061020
Ideal chemistry: Ni_3_Fe
Locality: Oregon, USA
Source: Michael Scott
Description: Silver metallic massive pebbles with brownish-red oxidized coating, variety josephinite
Measured chemistry: light phase: (Ni_2.60_Fe_0.40_)_Σ=3_(Fe_0.93_Co_0.07_)_Σ=1_ ; the rim (dark phase) is a Ni-Fe-silicate
Raman shift (cm-1)	intensity
170.913	0
173.805	2.46582
176.698	0.768555
179.591	48.9922
182.483	39.0674
185.376	52.6543
188.269	49.9092
191.162	117.64
194.054	90.6738
196.947	57.5225
199.84	161.795
202.732	172.419
205.625	82.3027
208.518	55.7188
211.411	105.906
214.303	152.718
217.196	88.0303
220.089	169.381
222.981	172.341
225.874	119.346
228.767	160.392
231.659	134.243
234.552	97.8144
237.445	146.803
240.338	111.406
243.23	163.428
246.123	145.135
249.016	79.5264
251.908	106.148
254.801	91.4873
257.694	51.1289
260.586	53.0498
263.479	67.7481
266.372	153.299
269.264	113.882
272.157	128.935
275.05	96.6826
277.943	97.7754
280.835	95.4697
283.728	133.376
286.621	115.827
289.514	67.9863
292.406	79.2275
295.299	106.749
298.192	91.8018
301.084	72.8887
303.977	124.93
306.87	100.188
309.762	77.8066
312.655	49.1426
315.548	79.6318
318.44	64.3291
321.333	133.447
324.226	109.406
327.119	44.1797
330.011	0.527344
332.904	61.376
335.797	50.7461
338.689	62.1172
341.582	33.4941
344.475	134.849
347.368	19.9707
350.26	0.147461
353.153	55.5391
356.046	41.3223
358.938	10.4102
361.831	72.1904
364.724	114.633
367.616	86.0352
370.509	115.111
373.402	57.4873
376.295	43.9541
379.187	60.7129
382.08	50.2412
384.973	150.532
387.865	91.8311
390.758	119.03
393.651	67.79
396.543	21.999
399.436	68.6094
402.329	134.929
405.221	66.2188
408.114	48.2891
411.007	136.735
413.9	33.5713
416.792	17.2578
419.685	39.2266
422.578	40.0312
425.47	38.1397
428.363	12.1729
431.256	32.5928
434.149	106.906
437.041	114.772
439.934	60.3965
442.827	123.759
445.719	54.0312
448.612	103.799
451.505	23.9834
454.397	83.2607
457.29	102.213
460.183	46.0693
463.075	44.6855
465.968	38.2129
468.861	148.676
471.754	9.58594
474.646	82.4873
477.539	172.929
480.432	119.163
483.324	13.751
486.217	33.9023
489.11	0.621094
492.003	57.8184
494.895	100.219
497.788	23.0771
500.681	43.9082
503.573	95.8828
506.466	145.641
509.359	107.084
512.251	152.791
515.144	195.01
518.037	191.639
520.93	204.107
523.822	226.606
526.715	250.527
529.608	214.594
532.5	263.418
535.393	191.785
538.286	298.822
541.178	309.904
544.071	224.984
546.964	161.01
549.857	98.6875
552.749	115.871
555.642	218.147
558.535	119.963
561.427	59.3789
564.32	113.064
567.213	92.2227
570.106	44.7012
572.998	0.587891
575.891	78.8535
578.784	60.0801
581.676	20.7617
584.569	28.416
587.462	42.5195
590.354	67.9922
593.247	39.8398
596.14	73.3379
599.033	11.832
601.925	111.07
604.818	98.043
607.711	15.8477
610.603	11.5449
613.496	111.269
616.389	85.9062
619.281	64.3984
622.174	107.621
625.067	91.5547
627.96	70.6367
630.852	103.385
633.745	150.047
636.638	158.83
639.53	104.502
642.423	224.615
645.316	230.832
648.208	208.045
651.101	205.106
653.994	235.418
656.886	264.672
659.779	193.412
662.672	262.545
665.565	311.496
668.457	256.346
671.35	209.369
674.243	240.978
677.135	93.875
680.028	170.34
682.921	193.772
685.813	174.027
688.706	94.0156
691.599	158.234
694.492	166.82
697.384	143.051
700.277	56.7656
703.17	137.508
706.062	50.3535
708.955	82.8769
711.848	160.342
714.74	21.6797
717.633	74.6894
720.526	40.127
723.419	94.0703
726.311	48.6562
729.204	53.5234
732.097	44.6211
734.989	45.3359
737.882	11.8223
740.775	67.6602
743.668	63.3926
746.56	55.4941
749.453	170.06
752.346	6.70703
755.238	84.1621
758.131	27.0312
761.024	103.283
763.917	64.7344
766.809	139.891
769.702	4.77344
772.595	45.7383
775.487	45.9746
778.38	142.715
781.273	32.0254
784.165	91.3613
787.058	134.641
789.951	96.1699
792.843	125.394
795.736	4.31836
798.629	114.123
801.522	44.0137
804.414	95.7109
807.307	75.418
810.2	25.1328
813.092	25.041
815.985	53.8457
818.878	143.098
821.77	175.588
824.663	176.727
827.556	175.168
830.449	96.6543
833.341	116.117
836.234	167.816
839.127	71.3066
842.019	60.5586
844.912	98.3223
847.805	128.781
850.697	125.484
853.59	83.4023
856.483	93.3477
859.376	109.484
862.268	25.6055
865.161	108.969
868.054	49.5684
870.946	150.389
873.839	128.053
876.732	104.484
879.625	46.4102
882.517	1.91016
885.41	174.795
888.303	111.029
891.195	74.9688
894.088	117.295
896.981	9.02148
899.874	10.5547
902.766	113.699
905.659	113.109
908.552	100.353
911.444	44.957
914.337	131.361
917.23	108.906
920.122	67.3125
923.015	134.652
925.908	60.7598
928.801	140.504
931.693	162.852
934.586	73.7246
937.479	80.1269
940.371	125.801
943.264	88.5176
946.157	52.6816
949.049	16.1816
951.942	115.728
954.835	8.49023
957.727	66.8359
960.62	101.811
963.513	84.5391
966.406	90.5312
969.298	84.6152
972.191	155.053
975.084	113.978
977.976	80.1992
980.869	28.9062
983.762	60.6953
986.654	127.457
989.547	92.3906
992.44	79.8984
995.333	72.0273
998.225	3.0957
1001.12	67.6953
1004.01	32.2441
1006.9	59.7402
1009.8	40.2246
1012.69	26.7695
1015.58	63.6348
1018.47	18.6348
1021.37	89.6602
1024.26	64.4238
1027.15	168.088
1030.05	47.9824
1032.94	130.164
1035.83	110.647
1038.72	132.221
1041.62	93.1543
1044.51	81.0625
1047.4	209.957
1050.29	191.856
1053.19	102.125
1056.08	113.344
1058.97	98.0801
1061.87	180.516
1064.76	116.58
1067.65	41.6074
1070.54	123.348
1073.44	81.8242
1076.33	109.504
1079.22	118.93
1082.11	133.365
1085.01	75.3066
1087.9	65.4473
1090.79	67.1387
1093.68	25.2852
1096.58	69.9473
1099.47	67.3594
1102.36	98.5996
1105.26	144.283
1108.15	79.1094
1111.04	149.582
1113.93	3.64648
1116.83	120.615
1119.72	175.836
1122.61	203.043
1125.5	172.732
1128.4	84.1719
1131.29	161.523
1134.18	147.24
1137.08	51.3184
1139.97	33.1289
1142.86	182.736
1145.75	101.082
1148.65	112.357
1151.54	88.6348
1154.43	149.435
1157.32	171.074
1160.22	193.982
1163.11	209.369
1166	129.568
1168.89	127.141
1171.79	196.221
1174.68	28.1602
1177.57	254.377
1180.46	90.0156
1183.36	90.6211
1186.25	72.4883
1189.14	272.232
1192.04	241.869
1194.93	193.978
1197.82	86.1914
1200.71	171.897
1203.61	10.0957
1206.5	23.2285
1209.39	37.7168
1212.29	259.522
1215.18	148.244
1218.07	116.254
1220.96	306.174
1223.86	157.281
1226.75	72.4981
1229.64	51.8984
1232.53	41.4355
1235.43	27.1309
1238.32	89.9551
1241.21	153.428
1244.11	118.928
1247	122.602
1249.89	122.436
1252.78	104.518
1255.68	129.674
1258.57	124.215
1261.46	87.2363
1264.35	170.035
1267.25	187.633
1270.14	32.748
1273.03	252.25
1275.92	130.461
1278.82	8.80078
1281.71	129.863
1284.6	120.713
1287.49	130.697
1290.39	81.1562
1293.28	0.625
