Measurement: Raman, 780 nm, unoriented, Raman Data Processed
Mineral: Baotite
Rruff sample: R060251
Ideal chemistry: Ba_4_(Ti^4+^,Nb^5+^,W^6+^)_8_O_16_(SiO_3_)_4_Cl
Locality: Baiyun-Obo mine, Inner Mongolia, China
Source: William W. Pinch
Description: Brownish-purple colored cleavage fragments associated with clear brewsterite and blue richterite
Raman shift (cm-1)	intensity
223.763	0
226.656	35.897
229.548	52.3257
232.441	74.6797
235.334	91.7173
238.227	125.954
241.119	86.3979
244.012	43.0908
246.905	23.6152
249.797	21.7773
252.69	4.32471
255.583	5.98975
258.476	0.688965
261.368	32.1714
264.261	52.519
267.154	50.6909
270.046	50.1982
272.939	28.7915
275.832	25.1245
278.724	37.5225
281.617	31.085
284.51	25.2676
287.402	14.3164
290.295	33.919
293.188	18.3774
296.081	2.51416
298.973	0.3125
301.866	4.68359
304.759	5.74463
307.651	2.70215
310.544	4.80176
313.437	0.241211
316.329	29.2534
319.222	33.7114
322.115	43.4673
325.008	44.4072
327.9	53.8848
330.793	40.9292
333.686	32.8755
336.578	43.6694
339.471	51.3227
342.364	26.0142
345.257	29.1816
348.149	15.7412
351.042	8.72315
353.935	8.34033
356.827	6.03418
359.72	9.85693
362.613	25.7432
365.505	16.3306
368.398	31.0122
371.291	66.3652
374.183	36.3355
377.076	19.7524
379.969	8.23242
382.862	20.4614
385.754	29.4492
388.647	62.7612
391.54	30.0825
394.432	38.2759
397.325	31.3208
400.218	12.3457
403.111	18.6148
406.003	17.1035
408.896	16.0493
411.789	19.7925
414.681	15.2559
417.574	22.8818
420.467	22.3613
423.359	32.9863
426.252	33.167
429.145	30.3452
432.038	35.3335
434.93	36.8599
437.823	39.4815
440.716	29.165
443.608	35.8682
446.501	35.748
449.394	26.9932
452.286	49.1602
455.179	39.7988
458.072	23.7656
460.964	46.8066
463.857	55.3906
466.75	20.0215
469.643	38.0913
472.535	43.7305
475.428	57.0576
478.321	20.0439
481.213	25.2188
484.106	33.3003
486.999	13.1699
489.892	15.8413
492.784	15.9966
495.677	29.6314
498.57	20.0498
501.462	8.4585
504.355	24.209
507.248	0.799805
510.14	19.9033
513.033	0.194336
515.926	8.75391
518.818	6.59619
521.711	5.82812
524.604	6.29834
527.497	6.24369
530.389	2.76025
533.282	0.27832
536.175	17.3662
539.067	18.5771
541.96	11.4707
544.853	12.8213
547.745	17.3999
550.638	5.92871
553.531	27.1636
556.424	38.5679
559.316	27.1694
562.209	30.2695
565.102	14.3296
567.994	26.9297
570.887	33.5772
573.78	17.3633
576.673	29.5293
579.565	30.3296
582.458	31.3418
585.351	25.3154
588.243	18.0523
591.136	5.00879
594.029	3.69336
596.921	7.99268
599.814	5.43994
602.707	18.77
605.6	16.2051
608.492	1.38965
611.385	19.0078
614.278	10.0581
617.17	16.418
620.063	6.41309
622.956	16.8652
625.848	27.6782
628.741	40.7432
631.634	30.6191
634.527	38.519
637.419	30.4145
640.312	40.2998
643.205	52.1807
646.097	42.0732
648.99	33.5034
651.883	38.1465
654.775	26.2398
657.668	30.7246
660.561	62.4468
663.453	61.5376
666.346	55.6914
669.239	63.312
672.132	27.8267
675.024	22.855
677.917	7.59717
680.81	12.5918
683.702	8.75977
686.595	13.8618
689.488	14.5964
692.38	9.84082
695.273	6.6084
698.166	2.21387
701.059	27.5586
703.951	7.23144
706.844	23.6186
709.737	29.4395
712.629	32.1294
715.522	24.0649
718.415	26.606
721.308	12.3633
724.2	28.709
727.093	32.9683
729.986	24.2314
732.878	47.2549
735.771	14.0581
738.664	19.6314
741.556	41.229
744.449	21.1865
747.342	32.5669
750.235	61.9761
753.127	17.3379
756.02	2.29834
758.913	20.0273
761.805	28.5615
764.698	32.8023
767.591	79.9536
770.483	53.5752
773.376	55.584
776.269	44.4668
779.162	58.8096
782.054	57.2471
784.947	32.456
787.84	51.1631
790.732	41.4414
793.625	91.1118
796.518	75.4165
799.41	24.9751
802.303	29.0918
805.196	39.7158
808.088	35.6934
810.981	58.0781
813.874	32.3813
816.767	39.5147
819.659	38.4336
822.552	51.6533
825.445	8.02637
828.337	12.897
831.23	3.875
834.123	5.54932
837.015	16.5981
839.908	15.8618
842.801	6.85791
845.694	0.528809
848.586	7.37109
851.479	14.4321
854.372	4.37109
857.264	19.7261
860.157	15.436
863.05	9.27441
865.942	2.03711
868.835	9.83105
871.728	6.98633
874.621	17.0386
877.513	16.1973
880.406	8.62793
883.299	25.5732
886.191	56.501
889.084	19.1899
891.977	16.6968
894.87	23.1939
897.762	1.53564
900.655	26.8105
903.548	7.58887
906.44	4.69287
909.333	17.1079
912.226	6.17578
915.118	4.09131
918.011	18.4917
920.904	22.1811
923.797	15.4785
926.689	16.1714
929.582	19.022
932.475	51.104
935.367	36.6748
938.26	21.9199
941.153	31.8989
944.045	36.9106
946.938	22.4878
949.831	18.0322
952.723	33.0859
955.616	31.3599
958.509	14.5669
961.402	16.5161
964.294	10.5674
967.187	30.4106
970.08	24.6372
972.972	2.83008
975.865	1.35352
978.758	7.62598
981.65	20.9136
984.543	17.2046
987.436	2.46289
990.329	18.9746
993.221	5.79492
996.114	25.0727
999.007	38.1728
1001.9	28.2246
1004.79	20.5566
1007.68	10.5273
1010.58	6.89893
1013.47	16.1064
1016.36	41.6128
1019.26	30.7427
1022.15	30.0767
1025.04	3.5459
1027.93	9.65479
1030.83	26.1357
1033.72	18.227
1036.61	44.023
1039.51	33.2471
1042.4	35.353
1045.29	51.4853
1048.18	26.1416
1051.08	17.563
1053.97	9.05176
1056.86	18.1148
1059.75	41.436
1062.65	53.9477
1065.54	54.9985
1068.43	33.6934
1071.32	35.0786
1074.22	42.9477
1077.11	61.3281
1080	60.5142
1082.89	104.649
1085.79	140.267
1088.68	118.528
1091.57	54.6035
1094.47	64.8579
1097.36	24.6465
1100.25	16.1001
1103.14	31.6973
1106.04	4.09131
1108.93	67.2954
1111.82	44.293
1114.71	14.6318
1117.61	15.6401
1120.5	8.46191
1123.39	13.7891
1126.29	2.50293
1129.18	30.3633
1132.07	0.900879
1134.96	6.25391
1137.86	29.4155
1140.75	50.4526
1143.64	23.0151
1146.53	51.1401
1149.43	13.5703
1152.32	15.6924
1155.21	54.4258
1158.11	18.8491
1161	18.5425
1163.89	18.208
1166.78	16.6626
1169.68	34.2622
1172.57	26.1948
1175.46	30.7549
1178.35	35.3975
1181.25	61.7861
1184.14	14.0801
1187.03	16.8608
1189.92	36.6577
1192.82	44.6987
1195.71	41.2749
1198.6	41.4853
1201.5	24.1089
1204.39	19.5039
1207.28	15.4146
1210.17	18.0278
1213.07	7.85498
1215.96	6.82764
1218.85	6.78271
1221.74	1.1084
1224.64	18.8765
1227.53	43.4111
1230.42	2.81592
1233.32	0.244629
1236.21	19.8896
1239.1	13.5679
1241.99	2.80176
1244.89	17.7012
1247.78	27.9629
1250.67	8.66797
1253.56	12.3721
1256.46	21.4678
1259.35	17.1372
1262.24	29.2754
1265.13	41.8252
1268.03	18.021
1270.92	2.59082
1273.81	9.31494
1276.71	3.73926
1279.6	6.46631
1282.49	11.188
1285.38	0
