Measurement: Raman, 780 nm, unoriented, Raman Data Processed
Mineral: Barioperovskite
Rruff sample: R110180
Ideal chemistry: BaTi^4+^O_3_
Locality: Synthetic
Source: Guangtian Zou
Description: Pale yellow fragment
Raman shift (cm-1)	intensity
184.652	7069.77
187.545	7213.86
190.437	7529.86
193.33	7871.2
196.223	8166.19
199.115	8487.6
202.008	8748.22
204.901	9038.95
207.794	9323.57
210.686	9584.88
213.579	9860.05
216.472	10121.8
219.364	10387.5
222.257	10643.2
225.15	10877.5
228.042	11089
230.935	11326.3
233.828	11566.3
236.721	11807.6
239.613	12058.8
242.506	12279
245.399	12569.5
248.291	12875
251.184	13156.1
254.077	13406.3
256.969	13675.8
259.862	13932.3
262.755	14142.5
265.648	14305.3
268.54	14404.3
271.433	14396
274.326	14300.9
277.218	14163.8
280.111	13826.9
283.004	13449.9
285.897	12917.8
288.789	12383.2
291.682	11901.3
294.575	11481.3
297.467	11454.2
300.36	12018.8
303.253	13549.8
306.145	14573.5
309.038	11473.7
311.931	9061.74
314.824	7953.35
317.716	7288.97
320.609	6774.82
323.502	6382.91
326.394	6013.09
329.287	5686.18
332.18	5347.34
335.072	5061.19
337.965	4820.5
340.858	4562.89
343.75	4367.55
346.643	4162.23
349.536	3998.38
352.429	3814.07
355.321	3674.27
358.214	3528.69
361.107	3402.44
364	3269.65
366.892	3160.65
369.785	3045.99
372.678	2937.47
375.57	2823.43
378.463	2717.71
381.356	2630.47
384.248	2522.94
387.141	2452.8
390.034	2363.35
392.926	2279.45
395.819	2203.42
398.712	2127.36
401.605	2051.71
404.497	1980.97
407.39	1908.21
410.283	1845.16
413.175	1765.57
416.068	1710.6
418.961	1656.86
421.853	1595.4
424.746	1528.81
427.639	1475.57
430.532	1422.85
433.424	1375
436.317	1323.74
439.21	1277.01
442.102	1230.71
444.995	1196.47
447.888	1167.56
450.781	1141.43
453.673	1121.08
456.566	1117.26
459.459	1131.79
462.351	1199.22
465.244	1323.66
468.137	1458.04
471.029	1543.16
473.922	1673.33
476.815	1872.62
479.707	2165.35
482.6	2530.19
485.493	2947.16
488.386	3387.98
491.278	3866.32
494.171	4426.59
497.064	5084.01
499.956	5770.88
502.849	6446.37
505.742	6988.1
508.635	7382.03
511.527	7570.83
514.42	7587.1
517.313	7450.48
520.205	7169.38
523.098	6841.26
525.991	6501
528.883	6142.08
531.776	5815.72
534.669	5509.49
537.562	5234.05
540.454	4960.82
543.347	4695.58
546.24	4450.86
549.132	4214.05
552.025	3984.9
554.918	3757.36
557.81	3533.81
560.703	3318.42
563.596	3115.73
566.489	2937.28
569.381	2794.06
572.274	2662.9
575.167	2543.47
578.059	2440.49
580.952	2357.14
583.845	2241.88
586.737	2163.09
589.63	2072.32
592.523	1977.62
595.415	1906.29
598.308	1827.79
601.201	1754.64
604.094	1682.6
606.986	1620.92
609.879	1558.98
612.772	1503.36
615.664	1447.21
618.557	1393.81
621.45	1347.21
624.342	1304.77
627.235	1268.17
630.128	1226.41
633.021	1187.32
635.913	1148.84
638.806	1124.26
641.699	1088.22
644.591	1054.25
647.484	1020.69
650.377	998.155
653.269	969.115
656.162	941.071
659.055	914.575
661.948	892.659
664.84	874.081
667.733	858.317
670.626	845.415
673.518	837.843
676.411	831.244
679.304	832.66
682.197	835.474
685.089	842.317
687.982	860.696
690.875	883.719
693.767	922.355
696.66	974.494
699.553	1056.43
702.445	1162.12
705.338	1294.08
708.231	1446.75
711.124	1586.62
714.016	1664.91
716.909	1658.31
719.802	1572.32
722.694	1426.04
725.587	1268.51
728.48	1128.89
731.372	1020.18
734.265	932.34
737.158	863.133
740.051	803.815
742.943	751.884
745.836	712.443
748.729	683.982
751.621	655.581
754.514	634.153
757.407	611.943
760.299	594.485
763.192	574.076
766.085	563.402
768.977	551.497
771.87	535.707
774.763	521.227
777.656	509.041
780.548	497.567
783.441	480.033
786.334	469.477
789.226	458.253
792.119	449.27
795.012	435.862
797.904	421.757
800.797	412.622
803.69	402.653
806.583	389.618
809.475	382.705
812.368	372.116
815.261	362.458
818.153	357.824
821.046	347.662
823.939	340.999
826.832	329.876
829.724	324.057
832.617	320.29
835.51	309.797
838.402	301.747
841.295	295.346
844.188	287.491
847.08	277.86
849.973	271.592
852.866	260.113
855.759	254.618
858.651	244.817
861.544	235.949
864.437	227.962
867.329	219.745
870.222	210.55
873.115	199.704
876.007	192.674
878.9	183.049
881.793	174.716
884.686	170.6
887.578	166.197
890.471	158.255
893.364	156.112
896.256	151.356
899.149	148.935
902.042	146.425
904.934	140.494
907.827	139.99
910.72	134.996
913.612	132.321
916.505	132.468
919.398	127.798
922.291	129.339
925.183	125.773
928.076	126.309
930.969	123.743
933.861	124.095
936.754	123.466
939.647	119.087
942.539	121.332
945.432	117.569
948.325	120.465
951.218	117.169
954.11	117.554
957.003	114.824
959.896	116.5
962.788	115.666
965.681	115.99
968.574	116.584
971.466	117.665
974.359	115.469
977.252	116.659
980.145	114.211
983.037	118.068
985.93	117.119
988.823	114.696
991.715	114.891
994.608	111.319
997.501	110.126
1000.39	106.51
1003.29	106.408
1006.18	101.71
1009.07	99.9029
1011.96	99.3145
1014.86	94.0778
1017.75	91.2383
1020.64	88.8045
1023.53	84.3945
1026.43	81.7467
1029.32	80.7721
1032.21	77.6313
1035.11	73.1886
1038	72.0508
1040.89	67.4748
1043.78	67.1993
1046.68	64.442
1049.57	71.8329
1052.46	61.1379
1055.36	59.3531
1058.25	56.5821
1061.14	54.8337
1064.03	56.0342
1066.93	53.3009
1069.82	51.2962
1072.71	50.5043
1075.6	49.5967
1078.5	49.446
1081.39	45.4573
1084.28	46.9985
1087.17	46.179
1090.07	41.8707
1092.96	43.0848
1095.85	43.8429
1098.74	42.0968
1101.64	40.2695
1104.53	40.1198
1107.42	38.7434
1110.32	38.272
1113.21	35.1797
1116.1	36.9541
1118.99	35.6112
1121.89	35.5769
1124.78	33.6433
1127.67	34.3752
1130.57	33.5609
1133.46	33.222
1136.35	31.4866
1139.24	32.4507
1142.14	31.8714
1145.03	31.5091
1147.92	31.9211
1150.81	30.8996
1153.71	32.1189
1156.6	33.6546
1159.49	31.3101
1162.38	31.864
1165.28	33.1398
1168.17	31.6148
1171.06	31.4768
1173.96	33.7458
1176.85	33.5606
1179.74	33.7259
1182.63	32.901
1185.53	34.2342
1188.42	35.012
1191.31	34.7274
1194.2	36.536
1197.1	34.9313
1199.99	35.4292
1202.88	34.3209
1205.78	36.0698
1208.67	36.4266
1211.56	35.6305
1214.45	35.1641
1217.35	34.7997
1220.24	33.861
1223.13	35.2743
1226.02	35.6871
1228.92	33.5762
1231.81	31.8339
1234.7	31.8193
1237.6	30.8858
1240.49	32.5364
1243.38	30.7606
1246.27	29.4606
1249.17	31.2374
1252.06	28.5426
1254.95	26.8634
1257.84	28.0786
1260.74	40.0021
1263.63	27.5063
1266.52	24.0941
1269.41	28.4329
1272.31	28.4428
1275.2	28.0766
1278.09	28.1683
1280.98	26.9416
1283.88	26.6676
