Measurement: Raman, 780 nm, unoriented, Raman Data Processed
Mineral: Bario-olgite
Rruff sample: R060614
Ideal chemistry: Na(Na,Sr,Ce)_2_Ba(PO_4_)_2_
Locality: Palitra pegmatite, Kedykverpakhk Mountain, Lovozero massif, Kola Peninsula, Russia
Source: Michael Scott
Description: Grayish-green grains associated with brown manaksite R060693, and purple ussingite
Raman shift (cm-1)	intensity
93.9705	18820.2
97.3453	19741.9
100.72	20346.6
104.095	21374.8
107.47	22349.4
110.845	23262.2
114.219	24448.2
117.594	25607.3
120.969	27059.5
124.344	28479
127.719	29867.2
131.094	31232.5
134.468	33003.6
137.843	34720.9
141.218	36804.5
144.593	38734.8
147.968	40599.5
151.342	42244.5
154.717	44283
158.092	46039.2
161.467	47772
164.842	49680.2
168.216	51316.6
171.591	52968.9
174.966	54744
178.341	56219.2
181.716	58129
185.09	59890.8
188.465	61459.3
191.84	62979.7
195.215	64706.9
198.59	66375.8
201.965	68291.1
205.339	70165.5
208.714	72015
212.089	73808.1
215.464	76033.8
218.839	78384.3
222.214	80899.1
225.588	83106.2
228.963	85180.9
232.338	87145.1
235.713	88783.2
239.088	90501.9
242.462	91490.6
245.837	92816.5
249.212	93954
252.587	94516.6
255.962	95040.5
259.336	95751.8
262.711	96060.2
266.086	96803.9
269.461	97077.1
272.836	97278.8
276.211	97235.1
279.585	96998.1
282.96	96731.1
286.335	96574.6
289.71	97280.7
293.085	97536.7
296.459	98418.8
299.834	99943.5
303.209	102196
306.584	104697
309.959	108014
313.334	111786
316.708	116600
320.083	121715
323.458	127258
326.833	133221
330.207	139423
333.582	145700
336.957	152660
340.332	158048
343.707	163287
347.082	167036
350.456	169798
353.831	171589
357.206	172852
360.581	172762
363.956	172048
367.33	170327
370.705	168514
374.08	166223
377.455	164251
380.83	162516
384.205	161462
387.579	161301
390.954	161130
394.329	162245
397.704	162530
401.079	163206
404.453	164065
407.828	164144
411.203	164278
414.578	163400
417.953	161636
421.327	160157
424.702	156738
428.077	153304
431.452	149362
434.827	144781
438.202	139955
441.576	135647
444.951	130933
448.326	127029
451.701	123624
455.076	120000
458.45	117121
461.825	113942
465.2	111534
468.575	108853
471.95	106953
475.325	104924
478.699	102914
482.074	101137
485.449	99785.2
488.824	98358.8
492.199	97175.5
495.573	96320.8
498.948	95165.6
502.323	94128.6
505.698	93726.7
509.073	93259.6
512.447	92734.6
515.822	92701.4
519.197	92024.4
522.572	91858.3
525.947	91457.4
529.322	91446.2
532.696	90955.3
536.071	90473.1
539.446	90294.9
542.821	89713.6
546.196	89151.6
549.57	88021.8
552.945	87468.6
556.32	86480.4
559.695	85562.5
563.07	84351.4
566.444	83214.1
569.819	82282
573.194	80732.8
576.569	79570.6
579.944	78165.9
583.319	76529.6
586.693	74696.5
590.068	72648.1
593.443	71102.4
596.818	69551.3
600.193	67462.9
603.567	65620.2
606.942	63746.1
610.317	61990.2
613.692	60157
617.067	58527.1
620.442	56922.5
623.816	55988.6
627.191	54439.1
630.566	53182.4
633.941	52357.8
637.316	51360.1
640.69	50888.5
644.065	50125.9
647.44	49624.9
650.815	49362
654.19	48940.2
657.564	48808.1
660.939	49033.5
664.314	49013.6
667.689	49200.7
671.064	49140.9
674.439	49534.6
677.813	49623.8
681.188	49847.2
684.563	49935.2
687.938	50119.4
691.313	50062.5
694.688	49981.4
698.062	50003.2
701.437	49738.3
704.812	49399.8
708.187	48881.7
711.562	48444.7
714.936	48055.8
718.311	47180.2
721.686	46576.4
725.061	46063.3
728.436	45101.2
731.81	44441.7
735.185	43478.7
738.56	42515.7
741.935	41550
745.31	40551.8
748.684	39434.7
752.059	38360.7
755.434	37207.6
758.809	36014.9
762.184	35006.7
765.559	33831.6
768.933	32913.2
772.308	31921.7
775.683	31201.2
779.058	30182.1
782.433	29523.9
785.808	28803.8
789.182	28271.8
792.557	27685.5
795.932	27120.8
799.307	26775
802.682	26252.9
806.056	26132.5
809.431	25753.2
812.806	25466.9
816.181	25340.1
819.556	25112.8
822.93	25088.5
826.305	24826.7
829.68	24529.3
833.055	24536
836.43	24456.5
839.804	24214.3
843.179	24166.9
846.554	24069.6
849.929	24014
853.304	23881.2
856.679	23646.8
860.053	23498.2
863.428	23382.4
866.803	23179.7
870.178	22973.8
873.553	22907.1
876.927	22697.5
880.302	22532.8
883.677	22507.4
887.052	22278.1
890.427	22076.8
893.802	21932.8
897.176	21930.8
900.551	21895
903.926	21888.5
907.301	21953.2
910.676	21785.8
914.05	21770.8
917.425	21789.8
920.8	21795.3
924.175	21780.1
927.55	22005.4
930.924	22074.5
934.299	22103
937.674	22425.9
941.049	22552.2
944.424	22803.4
947.799	23175.6
951.173	23452.3
954.548	23814.3
957.923	24161.3
961.298	24197.9
964.673	24112.5
968.047	24323.2
971.422	24622.3
974.797	24959.3
978.172	25469.3
981.547	26007.2
984.922	26796.8
988.296	27482.3
991.671	28246.6
995.046	28870.6
998.421	29773.3
1001.8	30630.9
1005.17	31589.8
1008.54	32554.8
1011.92	33533.9
1015.29	34897.5
1018.67	35912.1
1022.04	37178.4
1025.42	38354.5
1028.79	39585.7
1032.17	41305.1
1035.54	43172.5
1038.92	44835.8
1042.29	46611.2
1045.67	48375.3
1049.04	50694.1
1052.42	53168.2
1055.79	55624.2
1059.17	58536.4
1062.54	61448.3
1065.92	64965.3
1069.29	68304
1072.67	71891.6
1076.04	76190.2
1079.42	80617.6
1082.79	85976.7
1086.17	92082.1
1089.54	98314.5
1092.92	105729
1096.29	112491
1099.66	121332
1103.04	130767
1106.41	141756
1109.79	153369
1113.16	165853
1116.54	180038
1119.91	195981
1123.29	213486
1126.66	231783
1130.04	252600
1133.41	274544
1136.79	297246
1140.16	322312
1143.54	347508
1146.91	373902
1150.29	401115
1153.66	429042
1157.04	458229
1160.41	488200
1163.79	519541
1167.16	551832
1170.54	586637
1173.91	623320
1177.29	659680
1180.66	700043
1184.04	740984
1187.41	782918
1190.79	828424
1194.16	874853
1197.54	922122
1200.91	969634
1204.28	1.01446e+06
1207.66	1.05925e+06
1211.03	1.10444e+06
1214.41	1.14379e+06
1217.78	1.17933e+06
1221.16	1.20918e+06
1224.53	1.23833e+06
1227.91	1.26534e+06
1231.28	1.28334e+06
1234.66	1.29619e+06
1238.03	1.30147e+06
1241.41	1.30278e+06
1244.78	1.30177e+06
1248.16	1.29715e+06
1251.53	1.29322e+06
1254.91	1.28387e+06
1258.28	1.27879e+06
1261.66	1.27287e+06
1265.03	1.26908e+06
1268.41	1.26644e+06
1271.78	1.26519e+06
1275.16	1.26571e+06
1278.53	1.27332e+06
1281.9	1.28506e+06
