Measurement: Raman, 532 nm, unoriented, Raman Data Processed
Mineral: Barioperovskite
Rruff sample: R110180
Ideal chemistry: BaTi^4+^O_3_
Locality: Synthetic
Source: Guangtian Zou
Description: Pale yellow fragment
Raman shift (cm-1)	intensity
153.649	142.449
156.542	262.167
159.435	439.91
162.328	671.645
165.22	960.338
168.113	1302.44
171.006	1564.83
173.898	1603.39
176.791	1581.25
179.684	1658.32
182.577	1730.65
185.469	1820.78
188.362	1991.54
191.255	2156.72
194.147	2304.63
197.04	2494.9
199.933	2697.68
202.825	2913.48
205.718	3072.57
208.611	3203.18
211.504	3286.56
214.396	3348.65
217.289	3430.3
220.182	3514.33
223.074	3616.58
225.967	3674.93
228.86	3729.9
231.752	3767.66
234.645	3795.39
237.538	3816.57
240.43	3832.51
243.323	3864.1
246.216	3901.36
249.109	3916.81
252.001	3942.05
254.894	3958.28
257.787	3991.31
260.679	4016.16
263.572	4043.51
266.465	4068.59
269.358	4089.9
272.25	4112.45
275.143	4119.98
278.036	4106.53
280.928	4051.37
283.821	3962.83
286.714	3853.59
289.606	3751.03
292.499	3639.29
295.392	3521.08
298.284	3460.66
301.177	3483.72
304.07	3709.79
306.963	3923.07
309.855	3324.3
312.748	2832.16
315.641	2576.65
318.533	2414.79
321.426	2264.75
324.319	2156.11
327.212	2055.14
330.104	1950.88
332.997	1864.22
335.89	1781.47
338.782	1706.26
341.675	1630.74
344.568	1564.13
347.46	1500.19
350.353	1447.98
353.246	1392.7
356.139	1348.87
359.031	1302.34
361.924	1255.23
364.817	1214.59
367.709	1173.07
370.602	1134.54
373.495	1100.16
376.387	1063.44
379.28	1025.89
382.173	998.317
385.065	968.514
387.958	937.827
390.851	911.711
393.744	884.79
396.636	857.116
399.529	832.656
402.422	804.311
405.314	784.643
408.207	756.125
411.1	731.084
413.993	709.22
416.885	687.174
419.778	660.359
422.671	637.145
425.563	616.272
428.456	599.952
431.349	580.709
434.241	560.19
437.134	541.073
440.027	522.946
442.92	503.987
445.812	493.084
448.705	478.798
451.598	469.57
454.49	453.28
457.383	448.466
460.276	443.849
463.168	450.441
466.061	488.821
468.954	501.816
471.846	527.329
474.739	551.557
477.632	601.537
480.525	673.836
483.417	764.809
486.31	888.349
489.203	1035.44
492.095	1212.56
494.988	1416.92
497.881	1636.61
500.774	1859.32
503.666	2037.55
506.559	2192.4
509.452	2290.16
512.344	2351.66
515.237	2370.59
518.13	2350.82
521.022	2291.09
523.915	2222.45
526.808	2150.12
529.701	2067.5
532.593	1972.66
535.486	1887.52
538.379	1814.97
541.271	1742.42
544.164	1669.85
547.057	1601.34
549.949	1526.65
552.842	1452.24
555.735	1376.98
558.628	1303.47
561.52	1224.89
564.413	1156.85
567.306	1098.82
570.198	1042.96
573.091	994.975
575.984	954.656
578.876	924.602
581.769	891.226
584.662	855.886
587.554	826.958
590.447	796.756
593.34	766.782
596.232	738.318
599.125	707.296
602.018	680.754
604.911	657.483
607.803	635.654
610.696	610.148
613.589	591.713
616.481	572.102
619.374	556.227
622.267	534.395
625.159	519.683
628.052	505.313
630.945	491.335
633.838	479.932
636.73	466.378
639.623	456.048
642.516	442.216
645.408	431.134
648.301	421.361
651.194	412.159
654.087	403.789
656.979	396.51
659.872	388.751
662.765	381.064
665.657	376.915
668.55	374.961
671.443	373.512
674.335	371.235
677.228	369.555
680.121	373.207
683.014	380.38
685.906	384.811
688.799	396.136
691.692	412.346
694.584	435.352
697.477	461.861
700.37	504.978
703.263	558.517
706.155	626.748
709.048	707.422
711.941	784.186
714.833	833.316
717.726	836.949
720.619	791.276
723.511	720.126
726.404	645.611
729.297	572.445
732.189	508.228
735.082	462.366
737.975	424.182
740.868	394.955
743.76	370.138
746.653	353.787
749.546	335.876
752.438	323.304
755.331	311.473
758.224	299.223
761.116	293.448
764.009	283.222
766.902	277.514
769.795	269.159
772.687	266.226
775.58	258.278
778.473	253.341
781.365	248.115
784.258	241.507
787.151	236.907
790.043	229.277
792.936	225.495
795.829	220.6
798.722	215.974
801.614	212.816
804.507	205.689
807.4	202.799
810.292	199.645
813.185	194.599
816.078	192.401
818.971	187.494
821.863	183.551
824.756	184.379
827.649	178.58
830.541	176.023
833.434	173.687
836.327	170.635
839.219	166.323
842.112	165.564
845.005	159.884
847.898	155.668
850.79	154.97
853.683	150.692
856.576	148.623
859.468	143.205
862.361	140.476
865.254	135.554
868.146	131.772
871.039	129.344
873.932	126.515
876.824	122.843
879.717	119.103
882.61	116.895
885.503	114.162
888.395	112.34
891.288	109.53
894.181	107.303
897.073	105.948
899.966	104.864
902.859	103.296
905.751	103.131
908.644	101.901
911.537	100.685
914.43	99.555
917.322	99.1725
920.215	99.3165
923.108	96.5432
926	95.9129
928.893	96.2359
931.786	95.5685
934.678	94.7801
937.571	93.8244
940.464	93.9543
943.357	93.0478
946.249	92.5361
949.142	92.3402
952.035	92.8888
954.927	92.2355
957.82	91.9415
960.713	91.3765
963.606	90.6784
966.498	91.1875
969.391	91.2817
972.284	90.5438
975.176	91.9279
978.069	92.2836
980.962	91.8174
983.854	91.5317
986.747	92.0091
989.64	91.159
992.533	90.3053
995.425	91.0042
998.318	89.5576
1001.21	87.7743
1004.1	86.5671
1007	86.4416
1009.89	85.3615
1012.78	83.9683
1015.67	82.0956
1018.57	81.7888
1021.46	80.7048
1024.35	79.387
1027.24	78.4073
1030.14	76.4456
1033.03	74.5007
1035.92	74.5419
1038.82	72.3197
1041.71	72.0327
1044.6	70.356
1047.49	69.5653
1050.39	69.6673
1053.28	66.9692
1056.17	67.8358
1059.07	66.4128
1061.96	65.9801
1064.85	65.7833
1067.74	65.1149
1070.63	64.306
1073.53	63.8408
1076.42	63.3832
1079.31	62.6199
1082.21	60.8549
1085.1	61.8714
1087.99	61.2871
1090.88	60.4146
1093.78	60.2874
1096.67	59.7216
1099.56	59.7668
1102.45	59.7749
1105.35	59.388
1108.24	59.3116
1111.13	57.5386
1114.03	57.63
1116.92	57.2716
1119.81	56.6932
1122.7	56.5195
1125.6	56.993
1128.49	56.8974
1131.38	55.2977
1134.28	55.5743
1137.17	55.397
1140.06	55.0612
1142.95	54.8051
1145.85	55.8416
1148.74	55.2814
1151.63	54.286
1154.52	54.5931
1157.42	52.7685
1160.31	54.3847
1163.2	54.6423
1166.09	54.7559
1168.99	54.319
1171.88	54.6037
1174.77	55.0392
1177.66	55.528
1180.56	54.4536
1183.45	55.9778
1186.34	54.9324
1189.24	55.5219
1192.13	56.2571
1195.02	55.2495
1197.91	55.5285
1200.81	55.8962
1203.7	54.9954
1206.59	54.405
1209.48	55.442
1212.38	54.6212
1215.27	56.6655
1218.16	54.4808
1221.06	54.8161
1223.95	53.5177
1226.84	53.802
1229.73	53.406
1232.63	53.2453
1235.52	52.9871
1238.41	51.747
1241.31	51.2966
1244.2	51.9755
1247.09	51.0934
1249.98	51.3709
1252.88	49.8568
1255.77	51.1377
1258.66	49.928
1261.55	50.0834
1264.45	50.1825
1267.34	50.9175
1270.23	50.217
1273.12	48.245
1276.02	49.7725
1278.91	48.0918
1281.8	48.7228
1284.69	48.4139
1287.59	48.4917
1290.48	48.4609
1293.37	48.0965
1296.27	48.4128
1299.16	47.9365
1302.05	47.9686
