Measurement: Raman, 780 nm, unoriented, Raman Data Processed
Mineral: Barlowite
Rruff sample: R110007
Ideal chemistry: Cu^2+^_4_BrF(OH)_6_
Locality: Southwest mine, Bisbee, Cochise County, Arizona, USA
Source: Marcus Origlieri
Description: Blue platy crystals associated with cuprite and brochantite
Raman shift (cm-1)	intensity
202.457	0
205.349	0.945218
208.242	1.39859
211.135	2.33134
214.027	1.90263
216.92	2.72108
219.813	1.03106
222.705	4.80497
225.598	3.90733
228.491	0.794113
231.383	9.77867
234.276	2.75476
237.169	2.37866
240.061	2.23361
242.954	3.93214
245.847	0.689924
248.74	3.0398
251.632	2.31046
254.525	1.95533
257.418	5.61815
260.31	3.00908
263.203	0.416557
266.096	3.68
268.988	2.66192
271.881	3.71265
274.774	3.49501
277.667	2.18235
280.559	2.61366
283.452	6.34086
286.345	1.75935
289.237	0.006883
292.13	0.224317
295.023	7.02498
297.916	6.81052
300.808	4.32455
303.701	3.51582
306.594	3.0133
309.486	7.40192
312.379	2.65276
315.272	0.521693
318.164	5.6939
321.057	5.14056
323.95	1.37111
326.842	5.87124
329.735	0.432276
332.628	6.57624
335.521	3.00831
338.413	3.91991
341.306	3.9012
344.199	4.82566
347.091	2.85052
349.984	4.3238
352.877	6.13619
355.769	4.49329
358.662	4.19146
361.555	2.39912
364.447	4.25028
367.34	2.74709
370.233	1.51892
373.126	3.02626
376.018	1.83075
378.911	3.54974
381.804	3.07532
384.696	3.83303
387.589	2.15313
390.482	6.21479
393.375	0.330696
396.267	2.62549
399.16	2.29649
402.053	1.93124
404.945	0.97686
407.838	5.25222
410.731	4.9722
413.623	0.228344
416.516	0.195854
419.409	2.71944
422.301	6.63889
425.194	0.05835
428.087	1.65371
430.98	3.9568
433.872	0.318197
436.765	1.97975
439.658	3.77861
442.55	4.13784
445.443	3.02742
448.336	0.835595
451.228	1.49723
454.121	2.87131
457.014	2.75345
459.907	3.99663
462.799	3.93127
465.692	1.50573
468.585	2.06533
471.477	4.61043
474.37	1.20654
477.263	6.58143
480.156	1.54913
483.048	4.21964
485.941	1.64037
488.834	8.524
491.726	3.21405
494.619	5.35927
497.512	2.10099
500.404	3.69207
503.297	3.44157
506.19	2.62664
509.082	5.11816
511.975	3.53717
514.868	5.63225
517.761	1.39164
520.653	4.39064
523.546	6.16991
526.439	3.95651
529.331	4.72602
532.224	5.57677
535.117	4.88515
538.01	5.56633
540.902	5.83205
543.795	2.51812
546.688	1.83016
549.58	3.01231
552.473	4.59703
555.366	1.03188
558.258	0.341047
561.151	4.38094
564.044	1.8846
566.936	4.21818
569.829	4.96603
572.722	3.47311
575.615	7.36341
578.507	4.59625
581.4	2.24001
584.293	4.33469
587.185	1.51602
590.078	2.94185
592.971	1.42121
595.863	4.78075
598.756	4.08606
601.649	7.06974
604.542	0.801689
607.434	8.17732
610.327	3.20937
613.22	4.34525
616.112	4.09748
619.005	4.41626
621.898	9.76185
624.79	3.01734
627.683	1.28707
630.576	3.84241
633.468	4.57419
636.361	4.72895
639.254	9.07566
642.146	0.795267
645.039	5.28023
647.932	3.63307
650.825	2.81059
653.717	5.68255
656.61	8.0023
659.503	2.3006
662.395	2.62201
665.288	3.17543
668.181	1.81944
671.073	4.22263
673.966	3.21929
676.859	2.58317
679.752	4.06652
682.644	4.84396
685.537	0.127997
688.43	2.91366
691.322	5.00811
694.215	5.07517
697.108	6.91451
700	1.14941
702.893	3.09902
705.786	6.67683
708.679	1.97257
711.571	1.80074
714.464	3.07381
717.357	3.6567
720.249	0.798993
723.142	0.313977
726.035	0.009528
728.928	0.530236
731.82	0.882593
734.713	4.89806
737.606	1.29676
740.498	1.76543
743.391	1.57726
746.284	2.52284
749.176	1.20542
752.069	4.43687
754.962	2.33177
757.855	1.9086
760.747	3.23808
763.64	1.91287
766.533	7.51088
769.425	4.90663
772.318	5.51785
775.211	1.54271
778.103	1.20311
780.996	2.66355
783.889	0.140942
786.782	0.227874
789.674	2.93249
792.567	4.31713
795.46	5.17876
798.352	5.17167
801.245	3.98939
804.138	1.31078
807.03	4.21241
809.923	8.15361
812.816	0.577278
815.708	4.54772
818.601	3.64205
821.494	3.62896
824.386	2.09389
827.279	2.32972
830.172	4.32294
833.065	0.067014
835.957	0.853373
838.85	0.256285
841.743	1.99503
844.635	1.99789
847.528	4.82856
850.421	4.47903
853.313	0.32997
856.206	4.4853
859.099	2.09234
861.992	3.60297
864.884	0.28102
867.777	1.85246
870.67	4.85854
873.562	3.4654
876.455	3.04168
879.348	2.37768
882.24	0.466076
885.133	3.32871
888.026	4.88908
890.919	2.73588
893.811	2.23474
896.704	8.455
899.597	5.71668
902.489	0.069768
905.382	2.3762
908.275	0.306604
911.168	2.8736
914.06	3.52258
916.953	2.29441
919.846	0.90776
922.738	1.29355
925.631	0.35616
928.524	4.94936
931.416	6.90161
934.309	4.276
937.202	3.51246
940.095	2.38173
942.987	5.46285
945.88	0.080803
948.773	3.56208
951.665	2.97581
954.558	5.49874
957.451	0.216569
960.343	2.354
963.236	3.05824
966.129	5.56693
969.021	3.31051
971.914	2.94835
974.807	3.73872
977.699	4.39343
980.592	3.12874
983.485	2.51495
986.378	7.31971
989.27	1.91231
992.163	4.69545
995.056	1.92882
997.948	7.4984
1000.84	6.55492
1003.73	4.62298
1006.63	4.91489
1009.52	2.78823
1012.41	5.53552
1015.3	1.8257
1018.2	6.83662
1021.09	6.99667
1023.98	1.21387
1026.88	2.20401
1029.77	3.21338
1032.66	4.78865
1035.55	1.9114
1038.45	5.84492
1041.34	4.79662
1044.23	0.25486
1047.12	2.60431
1050.02	4.47163
1052.91	5.20113
1055.8	0.477203
1058.69	3.61743
1061.59	2.9383
1064.48	1.12166
1067.37	0.701371
1070.27	5.23944
1073.16	1.90339
1076.05	3.36585
1078.94	2.18678
1081.84	2.09555
1084.73	5.17158
1087.62	0.880697
1090.52	1.75836
1093.41	6.51133
1096.3	0.986054
1099.19	3.49983
1102.09	4.54344
1104.98	7.64225
1107.87	4.63951
1110.76	3.51521
1113.66	3.78816
1116.55	3.97651
1119.44	1.95148
1122.33	3.12745
1125.23	5.29477
1128.12	1.88967
1131.01	3.6477
1133.9	3.39673
1136.8	3.13251
1139.69	3.9552
1142.58	3.04106
1145.48	6.27868
1148.37	4.83338
1151.26	4.95184
1154.15	0.845227
1157.05	2.2093
1159.94	8.88903
1162.83	2.37304
1165.72	2.68758
1168.62	4.76781
1171.51	6.67671
1174.4	3.99692
1177.3	2.93323
1180.19	4.2411
1183.08	5.9701
1185.97	4.56656
1188.87	1.32193
1191.76	4.62672
1194.65	4.8863
1197.55	9.7932
1200.44	5.97079
1203.33	6.56582
1206.22	6.1126
1209.12	3.09115
1212.01	1.99637
1214.9	4.41265
1217.79	5.88942
1220.69	7.30829
1223.58	3.78387
1226.47	1.26156
1229.36	5.96555
1232.26	2.10825
1235.15	2.27283
1238.04	6.19648
1240.93	3.69283
1243.83	5.31282
1246.72	2.79097
1249.61	3.95997
1252.51	5.60178
1255.4	8.42528
1258.29	6.07864
1261.18	1.34821
1264.08	4.02382
1266.97	3.80145
1269.86	3.74728
1272.76	2.39836
1275.65	1.96558
1278.54	1.03628
1281.43	2.51807
1284.33	3.23056
