Measurement: Raman, 785 nm, unoriented, Raman Data Processed
Mineral: Barringerite
Rruff sample: R070439
Ideal chemistry: Fe_2_P
Locality: Dredged from Tampa Bay harbour, Tampa Bay, Florida, USA
Source: Paul Roth
Description: Silver colored metallic bleb associated with pseudowollastonite. Most likely synthetic.
Measured chemistry: (Fe_1.85_Ti_0.09_Si_0.03_Cr_0.02_Mn_0.01_)_Σ=2_P_1.00_ ; = light phase. The dark phase is (Fe_1.55_Si_0.45_)_Σ=2_P_1.00_ or Fe_1.00_(P_0.70_Si_0.30_)_Σ=1_
Raman shift (cm-1)	intensity
164.902	0
167.794	202.203
170.687	181.093
173.58	411.212
176.473	122.624
179.365	7.20312
182.258	19.5105
185.151	168.256
188.043	275.513
190.936	264.623
193.829	123.906
196.721	225.709
199.614	109.665
202.507	90.3103
205.4	162.953
208.292	136.591
211.185	84.1956
214.078	74.7419
216.97	131.269
219.863	88.3027
222.756	67.7195
225.649	25.3822
228.541	31.3147
231.434	38.5641
234.327	13.7864
237.219	6.46497
240.112	39.623
243.005	9.23315
245.897	21.0748
248.79	45.9326
251.683	98.3846
254.576	183.474
257.468	125.16
260.361	89.7896
263.254	124.759
266.146	135.44
269.039	202.587
271.932	168.314
274.824	189.102
277.717	209.517
280.61	274.256
283.502	251.776
286.395	240.876
289.288	245.604
292.181	200.81
295.073	177.996
297.966	142.597
300.859	132.778
303.751	177.326
306.644	105.744
309.537	121.704
312.43	95.7902
315.322	78.7741
318.215	34.0012
321.108	23.8219
324	13.241
326.893	75.8761
329.786	16.5341
332.678	62.9611
335.571	71.9665
338.464	65.8962
341.356	53.7097
344.249	107.748
347.142	107.843
350.035	68.4484
352.927	54.4029
355.82	0.730225
358.713	36.6261
361.605	6.33752
364.498	14.5192
367.391	51.9431
370.284	35.797
373.176	65.2318
376.069	84.6477
378.962	87.6858
381.854	150.137
384.747	98.1882
387.64	125.429
390.532	129.881
393.425	124.731
396.318	119.532
399.211	85.2407
402.103	78.6409
404.996	85.8903
407.889	59.432
410.781	73.2556
413.674	32.8929
416.567	72.7443
419.459	61.2467
422.352	106.914
425.245	102.701
428.137	98.8175
431.03	18.3215
433.923	60.1179
436.816	53.3359
439.708	47.991
442.601	3.69983
445.494	18.1813
448.386	32.5992
451.279	22.2339
454.172	1.23706
457.065	13.9248
459.957	32.6562
462.85	18.446
465.743	48.8546
468.635	37.2801
471.528	45.1494
474.421	14.7015
477.313	65.9155
480.206	5.46765
483.099	9.96753
485.991	48.4958
488.884	30.9847
491.777	25.7217
494.67	6.24487
497.562	12.4805
500.455	2.24036
503.348	8.83166
506.24	31.9017
509.133	20.4673
512.026	41.7803
514.918	17.4668
517.811	30.6553
520.704	60.4811
523.597	4.69507
526.489	8.09045
529.382	23.2505
532.275	15.2517
535.167	24.1001
538.06	0.108643
540.953	18.3206
543.846	15.3809
546.738	18.4434
549.631	36.8758
552.524	47.1218
555.416	62.1289
558.309	48.5478
561.202	64.4771
564.094	45.979
566.987	40.8221
569.88	6.28088
572.773	26.2706
575.665	14.177
578.558	26.5917
581.451	62.8472
584.343	9.71753
587.236	51.5786
590.129	53.178
593.021	21.8777
595.914	57.3727
598.807	59.3949
601.699	3.22473
604.592	58.4338
607.485	32.7318
610.378	67.8546
613.27	21.307
616.163	26.4086
619.056	19.6536
621.948	38.8742
624.841	36.7825
627.734	19.6196
630.626	51.2135
633.519	45.234
636.412	62.346
639.305	82.5713
642.197	69.7327
645.09	29.7435
647.983	62.0789
650.875	54.9805
653.768	27.4962
656.661	59.974
659.553	23.7379
662.446	14.8496
665.339	63.2071
668.232	60.8252
671.124	75.9746
674.017	37.6932
676.91	58.9711
679.802	41.7448
682.695	88.7794
685.588	74.1088
688.481	17.2986
691.373	22.902
694.266	36.4076
697.159	32.3514
700.051	60.9249
702.944	3.92358
705.837	36.9476
708.729	42.9553
711.622	71.2067
714.515	37.2551
717.408	33.3927
720.3	42.5465
723.193	60.6785
726.086	9.84033
728.978	60.9654
731.871	51.7152
734.764	1.83765
737.656	23.1578
740.549	41.5183
743.442	38.2321
746.335	22.1533
749.227	61.0105
752.12	23.9325
755.013	19.8306
757.905	61.104
760.798	47.2294
763.691	69.516
766.583	52.1228
769.476	50.0668
772.369	54.7087
775.261	1.3595
778.154	34.9242
781.047	54.5795
783.94	7.55298
786.832	32.8236
789.725	47.9313
792.618	43.9418
795.51	52.9008
798.403	48.2067
801.296	40.1163
804.188	37.6233
807.081	47.4435
809.974	73.7717
812.867	66.9925
815.759	39.0293
818.652	43.6418
821.545	27.0397
824.437	77.951
827.33	43.3445
830.223	35.2421
833.115	58.5247
836.008	46.2118
838.901	75.2988
841.794	97.3862
844.686	55.4232
847.579	46.5332
850.472	35.5928
853.364	34.5292
856.257	2.59473
859.15	14.9202
862.043	24.8773
864.935	28
867.828	24.5477
870.721	43.5526
873.613	51.3325
876.506	19.8114
879.399	88.9586
882.291	38.9042
885.184	60.8691
888.077	55.4567
890.97	23.8794
893.862	24.9636
896.755	45.3501
899.648	68.9847
902.54	31.8584
905.433	21.7716
908.326	21.7244
911.218	59.5454
914.111	52.7097
917.004	42.4906
919.896	44.1073
922.789	36.407
925.682	33.7211
928.575	39.0198
931.467	37.8595
934.36	5.24182
937.253	11.163
940.145	8.75403
943.038	53.0442
945.931	50.0826
948.823	40.4039
951.716	24.5282
954.609	9.71167
957.502	28.7606
960.394	37.8016
963.287	21.8296
966.18	50.749
969.072	9.552
971.965	44.366
974.858	6.72327
977.75	1.04602
980.643	4.77405
983.536	37.7252
986.429	26.3428
989.321	15.6847
992.214	68.0504
995.107	35.1306
997.999	57.192
1000.89	23.0844
1003.78	63.2695
1006.68	0.40686
1009.57	32.1991
1012.46	33.7772
1015.36	19.399
1018.25	24.6643
1021.14	11.7605
1024.03	47.7157
1026.93	4.85498
1029.82	49.2175
1032.71	15.4906
1035.6	64.3877
1038.5	36.256
1041.39	5.79944
1044.28	42.2929
1047.17	24.8063
1050.07	11.5308
1052.96	31.3064
1055.85	14.4222
1058.75	30.4208
1061.64	35.4949
1064.53	12.1339
1067.42	56.1708
1070.32	58.1757
1073.21	25.4568
1076.1	27.6172
1078.99	48.6869
1081.89	58.8582
1084.78	43.7422
1087.67	40.7341
1090.57	48.1676
1093.46	7.224
1096.35	49.5312
1099.24	58.8159
1102.14	48.1101
1105.03	71.5317
1107.92	80.0967
1110.82	70.1209
1113.71	59.8132
1116.6	3.20361
1119.49	37.3579
1122.38	45.3312
1125.28	47.5565
1128.17	12.668
1131.06	48.9512
1133.96	8.93701
1136.85	20.1682
1139.74	99.7835
1142.63	94.7327
1145.53	71.1547
1148.42	57.8921
1151.31	87.613
1154.2	19.7465
1157.1	21.1071
1159.99	61.5861
1162.88	10.1023
1165.78	19.3893
1168.67	34.0112
1171.56	41.5301
1174.45	42.7941
1177.35	32.7465
1180.24	72.7681
1183.13	68.5719
1186.03	54.5841
1188.92	85.2102
1191.81	34.3983
1194.7	23.7307
1197.6	18.7161
1200.49	24.4221
1203.38	19.1799
1206.27	15.088
1209.17	46.1909
1212.06	65.8958
1214.95	44.4418
1217.85	44.4822
1220.74	85.2905
1223.63	94.6091
1226.52	23.7291
1229.41	43.4254
1232.31	15.0687
1235.2	12.7679
1238.09	34.1194
1240.99	46.9672
1243.88	0
