Measurement: Raman, 532 nm, unoriented, Raman Data Processed
Mineral: Barringerite
Rruff sample: R070439
Ideal chemistry: Fe_2_P
Locality: Dredged from Tampa Bay harbour, Tampa Bay, Florida, USA
Source: Paul Roth
Description: Silver colored metallic bleb associated with pseudowollastonite. Most likely synthetic.
Measured chemistry: (Fe_1.85_Ti_0.09_Si_0.03_Cr_0.02_Mn_0.01_)_Σ=2_P_1.00_ ; = light phase. The dark phase is (Fe_1.55_Si_0.45_)_Σ=2_P_1.00_ or Fe_1.00_(P_0.70_Si_0.30_)_Σ=1_
Raman shift (cm-1)	intensity
137.388	0
140.763	11.9062
144.137	30.1658
147.512	31.4772
150.887	21.1785
154.262	35.9467
157.637	1.99977
161.012	39.5119
164.386	36.7876
167.761	16.5808
171.136	63.8562
174.511	54.1514
177.886	10.7454
181.26	28.146
184.635	32.5528
188.01	50.4059
191.385	20.7781
194.76	31.358
198.135	22.4501
201.509	31.0662
204.884	35.7607
208.259	1.58949
211.634	50.8388
215.009	12.9841
218.383	3.59701
221.758	45.2393
225.133	17.9734
228.508	7.53862
231.883	16.4215
235.257	11.689
238.632	18.5785
242.007	5.63774
245.382	15.4311
248.757	18.5964
252.132	8.99799
255.506	9.04431
258.881	37.7394
262.256	6.65002
265.631	17.3053
269.006	25.3929
272.38	32.116
275.755	7.02658
279.13	24.8029
282.505	23.8775
285.88	14.118
289.255	19.5085
292.629	26.9632
296.004	39.3619
299.379	21.719
302.754	35.7616
306.129	26.8096
309.503	37.7991
312.878	3.2789
316.253	36.1814
319.628	33.6726
323.003	15.1989
326.378	1.77978
329.752	26.9078
333.127	37.6899
336.502	35.2407
339.877	38.9374
343.252	54.4415
346.627	44.6091
350.001	53.0005
353.376	57.954
356.751	48.276
360.126	37.921
363.501	19.7969
366.875	32.5558
370.25	16.0857
373.625	8.29887
377	34.0041
380.375	33.4264
383.75	38.1302
387.124	43.4937
390.499	31.7873
393.874	25.5069
397.249	57.7799
400.624	27.0719
403.998	55.9715
407.373	13.8394
410.748	37.9171
414.123	16.6618
417.498	15.8881
420.873	25.294
424.247	35.9143
427.622	12.7597
430.997	35.9361
434.372	44.8084
437.747	15.3354
441.121	37.4769
444.496	47.3442
447.871	31.7316
451.246	18.5382
454.621	17.6864
457.995	4.59994
461.37	1.26619
464.745	10.0798
468.12	1.37675
471.495	5.1378
474.87	25.5149
478.244	32.5571
481.619	47.9089
484.994	21.8291
488.369	32.6264
491.744	24.5031
495.118	12.9627
498.493	3.2486
501.868	12.5008
505.243	1.95161
508.618	6.55491
511.993	23.9851
515.367	16.3261
518.742	27.8851
522.117	27.2095
525.492	19.6973
528.867	10.0517
532.241	42.1665
535.616	25.9651
538.991	18.7254
542.366	8.60483
545.741	19.6614
549.116	6.6048
552.49	28.7113
555.865	35.8719
559.24	25.3505
562.615	46.1426
565.99	24.5079
569.365	29.6692
572.739	30.3485
576.114	32.9438
579.489	51.8286
582.864	31.1419
586.239	17.4433
589.613	8.53809
592.988	2.50925
596.363	19.0117
599.738	6.05609
603.113	28.2726
606.487	4.50107
609.862	33.9963
613.237	22.4524
616.612	8.14139
619.987	18.8662
623.362	16.8909
626.736	6.80678
630.111	37.1635
633.486	17.5291
636.861	65.954
640.236	19.0086
643.611	60.1671
646.985	55.5718
650.36	29.5421
653.735	26.9725
657.11	7.10286
660.485	50.2551
663.859	40.3664
667.234	45.9817
670.609	30.7558
673.984	14.7925
677.359	3.1924
680.734	14.4636
684.108	6.33618
687.483	26.9289
690.858	15.1209
694.233	15.1133
697.608	20.1596
700.982	26.2596
704.357	30.787
707.732	6.0623
711.107	4.79555
714.482	22.6291
717.856	16.2535
721.231	13.9742
724.606	21.6138
727.981	26.6023
731.356	35.5357
734.731	49.2613
738.105	23.4344
741.48	38.1026
744.855	24.5789
748.23	52.9153
751.605	31.3416
754.98	25.5981
758.354	46.4317
761.729	0.289505
765.104	52.7491
768.479	31.9621
771.854	51.2465
775.229	37.9959
778.603	26.8129
781.978	38.938
785.353	23.108
788.728	47.2319
792.102	33.3615
795.477	38.8222
798.852	34.4829
802.227	54.9625
805.602	51.4343
808.977	67.4016
812.351	78.5463
815.726	70.1618
819.101	61.1545
822.476	96.4787
825.851	66.3034
829.226	77.8536
832.6	71.9737
835.975	42.0387
839.35	56.8582
842.725	17.6247
846.1	33.4935
849.474	36.9945
852.849	39.8255
856.224	21.2513
859.599	22.4678
862.974	38.3352
866.348	20.4562
869.723	6.51263
873.098	26.1255
876.473	17.0268
879.848	10.7753
883.223	0.706543
886.597	6.17029
889.972	33.8263
893.347	16.5137
896.722	22.5126
900.097	38.8082
903.472	20.1422
906.846	37.8249
910.221	40.1466
913.596	33.7187
916.971	30.5177
920.346	28.157
923.721	44.4666
927.095	40.1743
930.47	46.2769
933.845	54.5482
937.22	57.5978
940.595	88.2114
943.969	37.2485
947.344	69.5156
950.719	37.3984
954.094	13.6952
957.469	14.5772
960.843	31.7542
964.218	26.423
967.593	22.4383
970.968	35.2668
974.343	53.0695
977.717	58.012
981.092	42.9806
984.467	39.9981
987.842	56.3303
991.217	31.6843
994.592	19.6353
997.966	40.8754
1001.34	25.5285
1004.72	5.36566
1008.09	28.7921
1011.47	35.4243
1014.84	39.9787
1018.22	50.8915
1021.59	32.3335
1024.96	23.082
1028.34	15.4556
1031.71	10.8331
1035.09	8.07544
1038.46	14.0055
1041.84	22.3916
1045.21	19.3123
1048.59	6.20386
1051.96	21.6684
1055.34	3.34999
1058.71	35.05
1062.09	38.3524
1065.46	9.83818
1068.84	1.75327
1072.21	1.04941
1075.59	7.25522
1078.96	19.7632
1082.34	10.1027
1085.71	16.3843
1089.09	33.3098
1092.46	20.9651
1095.84	30.9905
1099.21	5.50551
1102.59	46.4489
1105.96	72.3859
1109.34	42.5312
1112.71	69.5771
1116.09	37.9793
1119.46	20.5578
1122.84	7.0115
1126.21	10.3039
1129.58	6.2046
1132.96	8.75632
1136.33	43.9074
1139.71	40.0003
1143.08	15.8134
1146.46	20.8609
1149.83	8.69751
1153.21	16.5907
1156.58	28.001
1159.96	23.1799
1163.33	2.38501
1166.71	15.422
1170.08	44.4441
1173.46	21.9381
1176.83	46.52
1180.21	48.8888
1183.58	52.4172
1186.96	15.3952
1190.33	39.6268
1193.71	27.8259
1197.08	19.2808
1200.46	4.02837
1203.83	7.21275
1207.2	30.0717
1210.58	17.4964
1213.95	62.4248
1217.33	46.2983
1220.7	50.844
1224.08	44.2725
1227.45	20.2069
1230.83	53.0189
1234.2	21.1453
1237.58	21.01
1240.95	51.1014
1244.33	43.3228
1247.7	54.8842
1251.08	60.6722
1254.45	59.4892
1257.83	65.7899
1261.2	60.0842
1264.58	22.3438
1267.95	11.6206
1271.33	16.967
1274.7	70.2476
1278.08	3.02029
1281.45	40.5812
1284.83	26.8689
1288.2	17.1359
1291.58	30.9385
1294.95	39.9972
1298.33	39.8068
1301.7	15.7994
1305.08	44.541
1308.45	24.4082
1311.83	25.28
1315.2	65.9302
