Measurement: Raman, 780 nm, unoriented, Raman Data Processed
Mineral: Bayldonite
Rruff sample: R050670
Ideal chemistry: Cu^2+^_3_Pb^2+^O(As^5+^O_3_OH)_2_(OH)_2_
Locality: Tsumeb mine, Tsumeb, Otavi District, Oshikoto, Namibia
Source: University of Arizona Mineral Museum
Description: Green botryoidal coating asociated with olivenite R050670, malachite balls and azurite
Measured chemistry: Pb_1.00_Cu_3.00_O(As_1.00_O_3_OH)_2_(OH)_2_
Raman shift (cm-1)	intensity
149.397	0
152.29	1.18502
155.183	0.200787
158.075	0.06905
160.968	1.54725
163.861	1.88355
166.753	2.14599
169.646	1.50088
172.539	1.62552
175.431	1.95897
178.324	2.09568
181.217	0.959564
184.11	1.17584
187.002	2.25768
189.895	0.763786
192.788	1.37214
195.68	0.198631
198.573	0.725822
201.466	0.407242
204.358	1.39508
207.251	0.265358
210.144	0.477425
213.037	0.939156
215.929	1.03931
218.822	1.50058
221.715	2.52896
224.607	1.79939
227.5	3.34946
230.393	3.28563
233.286	3.47837
236.178	3.01862
239.071	3.04652
241.964	3.36041
244.856	3.78775
247.749	2.72903
250.642	2.85903
253.534	1.5785
256.427	0.980834
259.32	1.36764
262.212	1.86734
265.105	1.1467
267.998	1.02454
270.891	0.871086
273.783	1.23017
276.676	1.48059
279.569	1.04939
282.461	1.75099
285.354	2.00614
288.247	3.23381
291.139	2.04508
294.032	3.79439
296.925	4.19555
299.817	4.07275
302.71	4.15665
305.603	4.99956
308.496	4.80218
311.388	4.73499
314.281	5.02446
317.174	4.22605
320.066	4.84307
322.959	4.30835
325.852	4.29806
328.745	2.42333
331.637	3.61015
334.53	2.73636
337.423	2.44745
340.315	1.49409
343.208	1.47063
346.101	0.74144
348.993	0.77401
351.886	0.632362
354.779	0.250385
357.671	0.003744
360.564	0.484722
363.457	1.49027
366.35	0.211123
369.242	0.723125
372.135	0.516497
375.028	1.33244
377.92	0.053797
380.813	0.807205
383.706	0.42935
386.599	0.986471
389.491	1.22507
392.384	0.197365
395.277	2.42092
398.169	1.35954
401.062	1.41435
403.955	1.63013
406.847	1.16833
409.74	1.05771
412.633	1.8374
415.526	2.35496
418.418	1.35436
421.311	0.681803
424.204	2.15259
427.096	2.14462
429.989	1.46338
432.882	2.34364
435.774	0.657768
438.667	1.20768
441.56	0.358057
444.452	0.098782
447.345	1.02799
450.238	0.058197
453.13	0.715258
456.023	0.605225
458.916	0.420727
461.809	0.237171
464.701	1.00429
467.594	0.520552
470.487	1.06847
473.379	0.643921
476.272	1.03603
479.165	1.46986
482.058	0.88306
484.95	1.33362
487.843	0.214989
490.736	1.32108
493.628	0.015739
496.521	2.55648
499.414	0.991585
502.306	1.77491
505.199	0.982521
508.092	0.447544
510.985	0.741135
513.877	1.26017
516.77	1.25323
519.663	0.023951
522.555	1.12377
525.448	0.203989
528.341	0.39551
531.233	0.395061
534.126	1.81673
537.019	1.77599
539.912	2.12577
542.804	1.88867
545.697	2.7162
548.59	1.74061
551.482	2.24546
554.375	1.87395
557.268	2.47091
560.16	0.838856
563.053	1.4692
565.946	0.826973
568.838	2.2396
571.731	1.58148
574.624	1.43099
577.516	0.282864
580.409	0.157906
583.302	1.04496
586.195	0.292213
589.087	0.233957
591.98	0.318319
594.873	1.64874
597.765	0.16457
600.658	1.75947
603.551	1.08625
606.443	2.89531
609.336	1.56191
612.229	2.29917
615.122	1.26498
618.014	1.83311
620.907	1.72984
623.8	1.61638
626.692	0.924299
629.585	1.48941
632.478	1.68177
635.37	1.60804
638.263	1.64056
641.156	1.71732
644.049	1.07249
646.941	0.435741
649.834	0.775419
652.727	1.35223
655.619	1.36806
658.512	1.94447
661.405	0.528563
664.298	1.61165
667.19	1.25998
670.083	2.02592
672.976	0.795645
675.868	2.0265
678.761	0.588295
681.654	1.96368
684.546	1.96872
687.439	1.2762
690.332	0.751925
693.225	1.16589
696.117	0.931616
699.01	1.19623
701.903	0.367838
704.795	0.390699
707.688	0.780199
710.581	2.13823
713.473	0.24354
716.366	1.12277
719.259	0.493855
722.151	1.53985
725.044	0.283173
727.937	0.097748
730.83	0.01741
733.722	0.186432
736.615	1.62323
739.508	1.13651
742.4	1.11066
745.293	0.250238
748.186	0.150496
751.078	0.997997
753.971	0.022251
756.864	1.15355
759.756	0.309837
762.649	1.01934
765.542	1.38034
768.435	0.190517
771.327	0.269875
774.22	0.158392
777.113	0.27511
780.005	0.517891
782.898	1.63339
785.791	2.27889
788.683	2.29627
791.576	3.52007
794.469	5.6438
797.362	5.32174
800.254	6.91899
803.147	6.64458
806.04	5.36682
808.932	4.96823
811.825	3.86028
814.718	2.47237
817.611	2.43449
820.503	3.9785
823.396	3.5796
826.289	4.13091
829.181	5.37914
832.074	6.99504
834.967	7.12108
837.859	6.2931
840.752	5.06963
843.645	4.13882
846.538	2.87623
849.43	2.36919
852.323	2.07636
855.216	2.51449
858.108	0.98427
861.001	1.91923
863.894	0.329981
866.786	1.05885
869.679	0.594915
872.572	1.25701
875.464	1.10541
878.357	0.459929
881.25	1.00341
884.143	1.08182
887.035	1.22566
889.928	0.175205
892.821	0.701611
895.713	0.350113
898.606	0.135422
901.499	0.308002
904.391	0.511806
907.284	0.988844
910.177	1.33448
913.069	1.13945
915.962	2.26278
918.855	0.374712
921.748	0.098658
924.64	0.469538
927.533	0.194925
930.426	0.654987
933.318	0.670828
936.211	0.001528
939.104	0.38172
941.996	1.84507
944.889	1.56614
947.782	0.475183
950.675	1.65765
953.567	1.02255
956.46	0.398483
959.353	0.403818
962.245	1.60339
965.138	0.816912
968.031	0.962433
970.923	1.28213
973.816	1.34959
976.709	0.327984
979.602	0.65733
982.494	0.906364
985.387	0.69035
988.28	1.03444
991.172	2.26618
994.065	0.46891
996.958	1.51441
999.851	2.37488
1002.74	2.44207
1005.64	0.793512
1008.53	1.23118
1011.42	1.00502
1014.31	2.05023
1017.21	1.11891
1020.1	1.55083
1022.99	0.701967
1025.88	1.66518
1028.78	0.247206
1031.67	0.929457
1034.56	1.05278
1037.46	1.74247
1040.35	2.06595
1043.24	2.31891
1046.13	2.22179
1049.03	1.61545
1051.92	0.367783
1054.81	1.42866
1057.7	1.27685
1060.6	0.376669
1063.49	1.21193
1066.38	1.61824
1069.28	0.670389
1072.17	0.711559
1075.06	0.733885
1077.95	0.755972
1080.85	0.479454
1083.74	1.59828
1086.63	0.028749
1089.52	1.2699
1092.42	1.14021
1095.31	1.57585
1098.2	1.12749
1101.1	1.51736
1103.99	0.138081
1106.88	1.36071
1109.77	1.16706
1112.67	1.23307
1115.56	1.79501
1118.45	0.462358
1121.34	1.26342
1124.24	1.40307
1127.13	2.12551
1130.02	1.33481
1132.91	0.877365
1135.81	1.75637
1138.7	0.007904
1141.59	2.58752
1144.48	1.02809
1147.38	1.1379
1150.27	1.25574
1153.16	0.258553
1156.06	2.19905
1158.95	1.36335
1161.84	1.06738
1164.73	0.902805
1167.63	0.02249
1170.52	1.64227
1173.41	1.93996
1176.31	1.88456
1179.2	1.29875
1182.09	1.0824
1184.98	1.54882
1187.88	2.25403
1190.77	1.60683
1193.66	2.14804
1196.55	2.63682
1199.45	1.78699
1202.34	0.811674
1205.23	0.725441
1208.12	0.761782
1211.02	0.048391
1213.91	0.644001
1216.8	0.999846
1219.7	2.28006
1222.59	1.29635
1225.48	0.452372
1228.37	0.245571
1231.27	0.737513
1234.16	0.750755
1237.05	1.56034
1239.94	1.09051
1242.84	0.341724
1245.73	0.693233
1248.62	0.577497
1251.52	0.50333
1254.41	0.006657
1257.3	0.652037
1260.19	0.852373
1263.09	1.32991
1265.98	0.392612
1268.87	1.96781
1271.76	0.262455
1274.66	0.736
1277.55	1.24404
1280.44	1.87209
1283.34	0.996241
1286.23	0
