Measurement: Raman, 785 nm, unoriented, Raman Data Processed
Mineral: Bayleyite
Rruff sample: R070458
Ideal chemistry: Mg_2_(U^6+^O_2_)(CO_3_)_3_18H_2_O
Locality: Hideout mine (Hideout No. 1 mine), Deer Flats, White Canyon, White Canyon District, San Juan County, Utah, USA
Source: Michael Scott
Description: Sprays of well-formed yellow to white acicular crystals
Raman shift (cm-1)	intensity
168.749	0
171.642	12.1138
174.534	11.0664
177.427	22
180.32	135.087
183.212	245.277
186.105	321.095
188.998	330.952
191.891	399.521
194.783	480.157
197.676	469.676
200.569	371.769
203.461	243.691
206.354	138.323
209.247	79.5195
212.139	61.1162
215.032	76.147
217.925	164.605
220.818	269.32
223.71	382.864
226.603	511.074
229.496	626.364
232.388	687.221
235.281	716.352
238.174	643.769
241.066	639.689
243.959	441.106
246.852	360.056
249.745	265.522
252.637	227.304
255.53	169.778
258.423	214.509
261.315	147.557
264.208	155.358
267.101	161.977
269.993	83.666
272.886	136.761
275.779	74.5244
278.672	3.94336
281.564	49.5625
284.457	46.3935
287.35	38.3125
290.242	29.5947
293.135	39.9663
296.028	0.116211
298.921	19.7344
301.813	50.3232
304.706	57.2725
307.599	58.3911
310.491	79.2134
313.384	78.3364
316.277	29.9829
319.169	26.1338
322.062	66.3872
324.955	33.8882
327.847	31.4165
330.74	31.7583
333.633	5.77295
336.526	32.4541
339.418	25.0498
342.311	5.7207
345.204	6.74805
348.096	1.78418
350.989	60.7749
353.882	10.0791
356.774	68.1211
359.667	37.5903
362.56	104.911
365.452	34.8867
368.345	51.5435
371.238	59.731
374.131	86.4761
377.023	29.5322
379.916	0.759766
382.809	57.9712
385.701	26.1133
388.594	34.2685
391.487	35.2598
394.38	37.0444
397.272	24.2505
400.165	26.0625
403.058	68.4228
405.95	64.0024
408.843	9.12158
411.736	19.7739
414.628	47.207
417.521	38.9985
420.414	103.431
423.307	27.7832
426.199	39.8355
429.092	36.2007
431.985	40.7588
434.877	18.0064
437.77	80.6138
440.663	67.4907
443.555	101.822
446.448	3.77637
449.341	45.6265
452.234	50.627
455.126	20.3423
458.019	43.0527
460.912	18.5327
463.804	59.1958
466.697	37.7056
469.59	46.9541
472.483	64.2959
475.375	14.5078
478.268	18.105
481.161	64.5752
484.053	32.5493
486.946	22.7588
489.839	16.7866
492.731	79.9077
495.624	33.1694
498.517	61.6982
501.409	35.4614
504.302	30.0142
507.195	24.689
510.088	80.1728
512.98	12.3457
515.873	10.8252
518.766	44.6851
521.658	38.959
524.551	18.2344
527.444	60.8799
530.337	65.2393
533.229	41.3701
536.122	34.793
539.015	61.5005
541.907	3.06592
544.8	28.2773
547.693	14.0049
550.585	17.7368
553.478	52.4292
556.371	14.7217
559.263	18.3882
562.156	59.4932
565.049	37.4038
567.942	31.0098
570.834	41.8603
573.727	110.61
576.62	30.9175
579.512	55.6387
582.405	67.4863
585.298	39.2602
588.19	61.377
591.083	36.6421
593.976	45.6201
596.869	39.7207
599.761	39.7524
602.654	67.2134
605.547	99.5606
608.439	59.2456
611.332	70.2285
614.225	37.5742
617.117	36.3042
620.01	76.0854
622.903	40.8623
625.795	87.3716
628.688	95.5347
631.581	58.0918
634.474	14.8457
637.366	42.3779
640.259	57.0591
643.152	8.91455
646.044	51.4727
648.937	57.5684
651.83	24.1724
654.722	51.6938
657.615	44.9243
660.508	103.661
663.401	89.2241
666.293	42.6338
669.186	3.94629
672.079	95.7158
674.971	54.3355
677.864	36.1919
680.757	60.7676
683.649	11.0576
686.542	19.8862
689.435	7.39404
692.328	18.04
695.22	1.55127
698.113	2.04297
701.006	69.8159
703.898	9.40088
706.791	68.3813
709.684	72.7964
712.577	76.1392
715.469	42.7832
718.362	61.3613
721.255	25.8691
724.147	68.8535
727.04	68.6631
729.933	63.7398
732.825	43.6006
735.718	44.4502
738.611	63.3589
741.504	81.5386
744.396	87.7773
747.289	87.2886
750.182	127.882
753.074	50.6274
755.967	76.5278
758.86	42.9634
761.752	60.2808
764.645	90.375
767.538	7.05176
770.431	5.20703
773.323	34.1538
776.216	2.34863
779.109	6.44434
782.001	37.5815
784.894	46.834
787.787	40.169
790.679	116.486
793.572	63.0283
796.465	60.0327
799.357	9.60791
802.25	45.937
805.143	98.7681
808.036	115.377
810.928	111.645
813.821	209.087
816.714	104.21
819.606	117.489
822.499	61.9243
825.392	58.2315
828.284	84.9356
831.177	111.712
834.07	67.4541
836.963	48.3911
839.855	46.3159
842.748	60.5498
845.641	7.19385
848.533	24.5615
851.426	49.8066
854.319	41.7095
857.212	15.4331
860.104	14.5654
862.997	9.73682
865.89	40.2788
868.782	2.89844
871.675	26.1538
874.568	54.0195
877.46	35.0781
880.353	77.6367
883.246	25.7378
886.139	26.0708
889.031	30.4165
891.924	11.3418
894.817	44.6348
897.709	39.3428
900.602	60.8765
903.495	73.8486
906.388	66.3184
909.28	65.1304
912.173	27.3838
915.066	4.23242
917.958	22.6782
920.851	31.3794
923.744	52.083
926.636	27.1685
929.529	64.0801
932.422	62.146
935.314	54.7227
938.207	53.8442
941.1	136.678
943.993	67.8398
946.885	41.2944
949.778	39.1719
952.671	61.3203
955.563	1.75293
958.456	38.9868
961.349	37.8662
964.241	5.98144
967.134	26.938
970.027	23.7388
972.92	12.2554
975.812	118.93
978.705	52.9233
981.598	144.361
984.49	79.0547
987.383	58.3652
990.276	4.06934
993.168	53.6665
996.061	55.7075
998.954	34.0181
1001.85	97.4243
1004.74	123.34
1007.63	128.019
1010.52	104.084
1013.42	97.9917
1016.31	66.436
1019.2	26.9707
1022.1	74.3516
1024.99	71.7969
1027.88	12.3599
1030.77	25.8096
1033.67	10.7827
1036.56	15.2754
1039.45	24.2505
1042.34	43.2007
1045.24	66.501
1048.13	41.5195
1051.02	25.5142
1053.91	18.8633
1056.81	19.3701
1059.7	39.1553
1062.59	39.272
1065.49	37.9434
1068.38	17.9985
1071.27	22.6875
1074.16	54.8359
1077.06	110.414
1079.95	109.955
1082.84	92.9453
1085.73	64.8452
1088.63	87.8657
1091.52	141.318
1094.41	57.1997
1097.31	106.406
1100.2	72.834
1103.09	164.315
1105.98	79.8731
1108.88	121.863
1111.77	170.331
1114.66	219.629
1117.56	322.263
1120.45	475.421
1123.34	560.81
1126.23	634.018
1129.12	470.529
1132.02	326.306
1134.91	257.775
1137.8	149.064
1140.7	112.399
1143.59	81.042
1146.48	54.0884
1149.37	83.3086
1152.27	29.9966
1155.16	84.9902
1158.05	48.9224
1160.94	5.39404
1163.84	100.366
1166.73	11.6773
1169.62	55.606
1172.52	20.874
1175.41	39.0791
1178.3	37.9175
1181.19	2.46728
1184.09	18.1221
1186.98	47.5469
1189.87	5.10449
1192.77	55.3257
1195.66	54.6631
1198.55	18.1514
1201.44	54.5239
1204.34	74.7022
1207.23	49.4228
1210.12	64.8149
1213.01	17.8613
1215.91	11.3315
1218.8	22.2441
1221.69	38.9575
1224.58	18.5962
1227.48	85.0962
