Measurement: Raman, 780 nm, unoriented, Raman Data Processed
Mineral: Behoite
Rruff sample: R130230
Ideal chemistry: Be(OH)_2_
Locality: Rode Ranch pegmatite, Llano County, Texas, USA
Source: Rock Currier
Description: Colorless vitreous pseudo-octahedral crystals in a yellow crust on brown gadolinite
Raman shift (cm-1)	intensity
108.916	0
111.809	31.8125
114.701	52.2891
117.594	77.9336
120.487	12.0156
123.38	55.4062
126.272	99.4961
129.165	117.172
132.058	139.598
134.95	151.824
137.843	129.922
140.736	148.504
143.629	180.34
146.521	181.875
149.414	171.117
152.307	168.859
155.199	125.859
158.092	162.902
160.985	127.418
163.877	144.816
166.77	187.356
169.663	154.574
172.555	129.867
175.448	106.621
178.341	138.57
181.234	145.582
184.126	193.094
187.019	163.238
189.912	175.938
192.804	189.184
195.697	146.043
198.59	166.867
201.482	161.301
204.375	146.144
207.268	170.711
210.161	187.785
213.053	150.219
215.946	191.769
218.839	209.016
221.731	240.766
224.624	283.805
227.517	263.625
230.409	181.34
233.302	139.164
236.195	101.156
239.088	109.727
241.98	90.7617
244.873	115.094
247.766	116.531
250.658	79.8789
253.551	23.457
256.444	25.168
259.336	20.1016
262.229	32.5156
265.122	14.8945
268.014	47.1719
270.907	91.2578
273.8	124.613
276.693	156.992
279.585	133.309
282.478	151.992
285.371	69.8086
288.263	65.5586
291.156	151.816
294.049	198.324
296.942	190.652
299.834	154.219
302.727	99.9727
305.62	40.8008
308.512	27.7383
311.405	43.9219
314.298	55.1211
317.19	66.125
320.083	81.4727
322.976	104.547
325.868	65.6836
328.761	99.7969
331.654	118.57
334.547	190.953
337.439	287.422
340.332	431.344
343.225	563.871
346.117	726.652
349.01	766.824
351.903	335.113
354.796	114.238
357.688	3.17969
360.581	19.5508
363.474	6.71484
366.366	44.8516
369.259	16.4375
372.152	29.9531
375.044	5.21875
377.937	33.1836
380.83	101.738
383.722	212.652
386.615	372.762
389.508	598.367
392.401	870.301
395.293	1091.14
398.186	1250.8
401.079	1125.34
403.971	862.926
406.864	575.258
409.757	355.523
412.649	216.965
415.542	137.141
418.435	46.3008
421.327	140.062
424.22	106.387
427.113	137.613
430.006	222.594
432.898	185.43
435.791	228.043
438.684	298.023
441.576	404.902
444.469	424.637
447.362	437.809
450.255	358.082
453.147	379.961
456.04	409.133
458.933	423.801
461.825	346.422
464.718	252.094
467.611	231.451
470.503	212.93
473.396	207.504
476.289	176.842
479.182	128.84
482.074	184.303
484.967	152.219
487.86	194.486
490.752	153.1
493.645	145.9
496.538	119.361
499.43	94.166
502.323	44.5996
505.216	38.666
508.108	51.6699
511.001	59.9062
513.894	93.5137
516.787	53.7031
519.679	44.2324
522.572	21.3203
525.465	1.85352
528.357	10.4141
531.25	6.94922
534.143	10.916
537.035	2.92383
539.928	19.0234
542.821	8.37109
545.713	39.9492
548.606	1.75977
551.499	31.9883
554.392	3.43359
557.284	32.502
560.177	8.68945
563.07	6.29492
565.962	15.0781
568.855	62.8496
571.748	49.6191
574.64	119.193
577.533	118.992
580.426	106.391
583.319	53.9023
586.211	88.8887
589.104	75.5938
591.997	118.691
594.889	118.691
597.782	201.824
600.675	115.65
603.567	166.06
606.46	135.258
609.353	105.096
612.246	123.588
615.138	95.1875
618.031	61.6328
620.924	27.0137
623.816	67.8867
626.709	46.4609
629.602	78.7031
632.494	29.9219
635.387	39.832
638.28	59.0234
641.173	54.9863
644.065	35.9512
646.958	40.3906
649.851	4.46875
652.743	4.99414
655.636	37.5547
658.529	83.0371
661.421	77.1699
664.314	60.168
667.207	95.0215
670.1	56.873
672.992	48.7188
675.885	67.1016
678.778	122.365
681.67	53.2363
684.563	91.6016
687.456	144.848
690.348	108.531
693.241	94.4316
696.134	118.08
699.027	83.2754
701.919	83.7539
704.812	86.4609
707.705	119.279
710.597	83.2578
713.49	128.26
716.383	91.9023
719.275	106.695
722.168	84.8594
725.061	9.08789
727.953	2.07422
730.846	62.623
733.739	82.7207
736.632	140.428
739.524	60.0254
742.417	45.5098
745.31	5.63672
748.202	33.9434
751.095	19.3574
753.988	48.2188
756.88	94.9121
759.773	15.1406
762.666	30.9297
765.559	20.707
768.451	21.7324
771.344	73.9004
774.237	81.334
777.129	57.7676
780.022	37.5625
782.915	8.75391
785.808	5.67578
788.7	21.3379
791.593	1.50781
794.486	29.7148
797.378	23.6523
800.271	10.9531
803.164	5.24609
806.056	128.082
808.949	96.7832
811.842	38.7441
814.734	33.3867
817.627	63.7559
820.52	88.3789
823.413	67.7598
826.305	72.8887
829.198	65.5488
832.091	59.3438
834.983	82.9648
837.876	65.6973
840.769	63.4805
843.661	83.8652
846.554	138.684
849.447	123.648
852.34	118.213
855.232	98.1992
858.125	47.8652
861.018	60.3965
863.91	86.6094
866.803	38.7168
869.696	40.6621
872.588	46.832
875.481	28.8691
878.374	18.6523
881.266	0.105469
884.159	21.6172
887.052	40.4609
889.945	30.3086
892.837	51.9844
895.73	9.86914
898.623	11.8047
901.515	38.1543
904.408	37.0625
907.301	25.377
910.193	35.5156
913.086	37.8398
915.979	5.52539
918.872	14.9414
921.764	29.7871
924.657	38.7031
927.55	42.8418
930.442	30.2129
933.335	28.4512
936.228	45.8867
939.12	47.1699
942.013	27.9023
944.906	4.45898
947.799	11.8359
950.691	12.6113
953.584	12.0176
956.477	6.35352
959.369	67.9434
962.262	29.3301
965.155	18.6094
968.047	23.1074
970.94	30.9219
973.833	5.67383
976.726	23.5371
979.618	0.523438
982.511	3.31641
985.404	12.2227
988.296	18.3379
991.189	3.59375
994.082	63.0938
996.974	50.7148
999.867	61.9316
1002.76	63.1094
1005.65	62.8086
1008.54	72.0781
1011.44	57.998
1014.33	53.1836
1017.22	50.2949
1020.12	76.8066
1023.01	73.0488
1025.9	79.6953
1028.79	94.1016
1031.69	98.6523
1034.58	136.85
1037.47	195.414
1040.37	189.6
1043.26	219.685
1046.15	172.133
1049.04	229.022
1051.94	253.918
1054.83	286.332
1057.72	264.283
1060.61	278.617
1063.51	247.611
1066.4	210.215
1069.29	181.676
1072.18	136.291
1075.08	118.625
1077.97	98.8809
1080.86	110.186
1083.76	97.0156
1086.65	125.266
1089.54	90.5957
1092.43	84.4141
1095.33	57.2754
1098.22	54.1191
1101.11	103.459
1104	135.912
1106.9	158.115
1109.79	159.565
1112.68	127.856
1115.58	90.7754
1118.47	98.3066
1121.36	80.1816
1124.25	80.4766
1127.15	78.7148
1130.04	71.8242
1132.93	100.746
1135.82	111.223
1138.72	91.2266
1141.61	66.4316
1144.5	42.6914
1147.39	28.8262
1150.29	0.439453
1153.18	28.2168
1156.07	17.6387
1158.97	3.03125
1161.86	19.0801
1164.75	20.7871
1167.64	40.7285
1170.54	67.6934
1173.43	107.977
1176.32	117.961
1179.21	131.742
1182.11	137.875
1185	92.3594
1187.89	41.9941
1190.79	47.8984
1193.68	60.9355
1196.57	97.1016
1199.46	54.4102
1202.36	94.9102
1205.25	41.9473
1208.14	8.20312
