Measurement: Raman, 532 nm, unoriented, Raman Data Processed
Mineral: Benavidesite
Rruff sample: R070348
Ideal chemistry: Pb^2+^_4_Mn^2+^Sb^3+^_6_S^2-^_14_
Locality: Bear Basin Mines, Bear Basin, North Bend, King County, Washington, USA
Source: Michael Scott
Description: Grey tabular crystals associated with quartz
Raman shift (cm-1)	intensity
158.822	0
161.715	3.0044
164.607	25.7627
167.5	10.4023
170.393	64.7197
173.286	7.80029
176.178	15.1626
179.071	8.65088
181.964	47.0952
184.856	65.7534
187.749	169.762
190.642	86.292
193.535	59.852
196.427	54.3154
199.32	51.5855
202.213	81.5137
205.105	95.1577
207.998	135.328
210.891	204.39
213.783	214.108
216.676	261.777
219.569	347.717
222.462	308.097
225.354	307.222
228.247	421.945
231.14	421.654
234.032	461.245
236.925	533.514
239.818	524.299
242.71	587.785
245.603	733.359
248.496	765.718
251.388	860.686
254.281	743.463
257.174	709.958
260.067	641.356
262.959	624.096
265.852	594.976
268.745	586.495
271.637	523.786
274.53	502.086
277.423	428.243
280.315	487.314
283.208	408.42
286.101	403.338
288.994	334.762
291.886	267.193
294.779	352.079
297.672	306.365
300.564	283.752
303.457	303.257
306.35	338.963
309.243	333.988
312.135	354.441
315.028	395.156
317.921	314.39
320.813	329.12
323.706	363.052
326.599	263.25
329.491	301.236
332.384	303.075
335.277	281.671
338.17	237.559
341.062	166.41
343.955	94.3159
346.848	63.293
349.74	27.5542
352.633	3.29248
355.526	15.2588
358.418	16.8965
361.311	26.2886
364.204	9.77637
367.097	3.38916
369.989	20.9214
372.882	36.2207
375.775	25.1255
378.667	8.08935
381.56	0.966797
384.453	31.6001
387.346	26.645
390.238	55.7495
393.131	59.7832
396.024	75.9077
398.916	115.519
401.809	102.606
404.702	94.8491
407.594	109.532
410.487	128.329
413.38	95.5938
416.272	114.587
419.165	125.775
422.058	170.274
424.951	189.044
427.843	118.446
430.736	98.3731
433.629	120.213
436.521	126.085
439.414	122.122
442.307	172.573
445.2	119.843
448.092	115.868
450.985	132.725
453.878	92.0415
456.77	91.5703
459.663	106.564
462.556	111.468
465.448	57.7515
468.341	68.0166
471.234	82.5874
474.127	81.6548
477.019	97.3291
479.912	114.466
482.805	66.8765
485.697	100.794
488.59	30.4653
491.483	81.7993
494.375	82.8442
497.268	54.5488
500.161	79.4736
503.053	64.1875
505.946	56.8091
508.839	90.7993
511.732	50.4131
514.624	58.3472
517.517	15.0713
520.41	36.3584
523.302	28.2393
526.195	0.27002
529.088	59.7119
531.981	46.3965
534.873	40.9443
537.766	8.4873
540.659	9.24658
543.551	13.5034
546.444	13.4087
549.337	33.5478
552.229	4.68359
555.122	48.3643
558.015	25.5981
560.908	9.86963
563.8	6.64551
566.693	60.1787
569.586	24.0825
572.478	65.186
575.371	38.1504
578.264	12.4873
581.156	13.2627
584.049	20.8296
586.942	4.16602
589.835	36.9629
592.727	52.4775
595.62	39.8423
598.513	87.1987
601.405	31.5459
604.298	59.8257
607.191	50.5415
610.083	17.2197
612.976	61.2959
615.869	54.0102
618.762	27.6006
621.654	39.457
624.547	54.6807
627.44	13.3521
630.332	64.3989
633.225	44.4228
636.118	7.77441
639.01	88.7769
641.903	7.67432
644.796	62.0083
647.689	71.8208
650.581	78.1938
653.474	84.6606
656.367	78.8936
659.259	82.4443
662.152	3.23731
665.045	49.3223
667.938	91.8281
670.83	18.0757
673.723	25.5102
676.616	55.9546
679.508	31.9878
682.401	55.8862
685.294	45.2485
688.186	45.0381
691.079	75.5986
693.972	39.7778
696.865	68.4351
699.757	17.6494
702.65	62.0493
705.543	69.374
708.435	18.3516
711.328	85.5635
714.221	4.65234
717.113	8.22266
720.006	39.5547
722.899	24.6855
725.792	75.5317
728.684	41.4458
731.577	11.8213
734.47	24.1172
737.362	54.3428
740.255	68.2471
743.148	32.6235
746.04	41.5322
748.933	2.57812
751.826	24.9541
754.719	36.5962
757.611	49.6128
760.504	51.2192
763.397	51.1411
766.289	46.6357
769.182	34.5185
772.075	49.9853
774.967	82.1079
777.86	75.0356
780.753	39.8916
783.646	45.8691
786.538	73.7305
789.431	78.9736
792.324	21.2769
795.216	47.5102
798.109	35.2388
801.002	47.978
803.894	41.7983
806.787	29.1875
809.68	20.0029
812.573	19.2163
815.465	30.8018
818.358	38.8984
821.251	7.83447
824.143	72.4243
827.036	25.8481
829.929	36.3779
832.822	41.665
835.714	68.6909
838.607	80.0049
841.5	18.353
844.392	53.7363
847.285	69.8682
850.178	65.5142
853.07	23.4634
855.963	42.0928
858.856	0.434082
861.749	37.1348
864.641	12.021
867.534	71.9209
870.427	67.2978
873.319	22.4033
876.212	2.5415
879.105	75.6001
881.997	50.6133
884.89	61.231
887.783	62.3857
890.676	48.6592
893.568	74.5317
896.461	59.7461
899.354	35.1728
902.246	88.3184
905.139	130.926
908.032	51.4072
910.924	55.4111
913.817	23.2432
916.71	88.5322
919.602	15.6943
922.495	44.3296
925.388	23.7393
928.281	35.479
931.173	47.5244
934.066	79.5591
936.959	44.7148
939.851	53.6562
942.744	63.8262
945.637	68.3608
948.529	11.9526
951.422	41.4477
954.315	30.1289
957.208	20.6108
960.1	85.144
962.993	74.9477
965.886	9.77637
968.778	57.167
971.671	49.8149
974.564	25.7759
977.457	14.438
980.349	33.6899
983.242	50.3403
986.135	14.731
989.027	24.8032
991.92	30.4131
994.813	69.8106
997.705	70.1352
1000.6	31.6445
1003.49	28.0884
1006.38	101.932
1009.28	82.8667
1012.17	125.911
1015.06	37.6235
1017.95	99.7119
1020.85	47.419
1023.74	66.2412
1026.63	17.958
1029.53	22.0405
1032.42	76.1206
1035.31	18.7476
1038.2	53.898
1041.1	76.3545
1043.99	53.623
1046.88	68.9072
1049.77	40.1582
1052.67	8.74756
1055.56	81.1328
1058.45	33.0254
1061.35	13.3545
1064.24	77.7012
1067.13	46.3701
1070.02	26.7285
1072.92	73.6782
1075.81	34.6328
1078.7	47.1367
1081.59	70.271
1084.49	17.1445
1087.38	11.7422
1090.27	61.1538
1093.16	53.0166
1096.06	50.2705
1098.95	62.0059
1101.84	51.7793
1104.73	97.0005
1107.63	63.3267
1110.52	33.252
1113.41	89.0435
1116.31	13.3877
1119.2	78.0493
1122.09	62.3608
1124.98	83.7349
1127.88	37.4453
1130.77	12.5054
1133.66	29.2964
1136.56	21.477
1139.45	29.292
1142.34	99.8467
1145.23	74.2627
1148.13	98.3276
1151.02	62.4893
1153.91	88.1841
1156.8	65.2422
1159.7	21.853
1162.59	43.773
1165.48	68.0981
1168.38	12.876
1171.27	54.9316
1174.16	62.6538
1177.05	44.9258
1179.95	60.602
1182.84	59.4619
1185.73	21.5142
1188.62	40.313
1191.52	48.584
1194.41	29.2061
1197.3	10.8843
1200.19	11.7334
1203.09	5.14111
1205.98	68.3828
1208.87	52.9639
1211.77	67.1352
1214.66	56.5063
1217.55	35.9468
1220.44	1.76172
1223.34	4.72266
1226.23	39.1504
1229.12	36.2778
1232.01	36.1943
1234.91	39.2588
1237.8	66.5342
1240.69	31.4888
1243.59	77.5732
1246.48	11.2856
1249.37	92.3643
1252.26	79.7935
1255.16	28.2769
1258.05	26.27
1260.94	61.791
1263.83	101.318
1266.73	23.0332
1269.62	80.9341
1272.51	41.2437
1275.4	99.7593
1278.3	89.8198
1281.19	62.3857
1284.08	84.3071
1286.98	35.9145
1289.87	64.687
1292.76	109.767
1295.65	90.334
1298.55	73.0557
1301.44	131.778
1304.33	12.2344
1307.22	34.0034
1310.12	40.9531
1313.01	23.9473
