Measurement: Raman, 785 nm, unoriented, Raman Data Processed
Mineral: Benavidesite
Rruff sample: R070348
Ideal chemistry: Pb^2+^_4_Mn^2+^Sb^3+^_6_S^2-^_14_
Locality: Bear Basin Mines, Bear Basin, North Bend, King County, Washington, USA
Source: Michael Scott
Description: Grey tabular crystals associated with quartz
Raman shift (cm-1)	intensity
150.911	0
153.803	272.532
156.696	64.8188
159.589	28.9524
162.481	98.4675
165.374	163.156
168.267	188.998
171.16	91.8374
174.052	48.1455
176.945	35.3301
179.838	44.0054
182.73	30.6738
185.623	19.624
188.516	28.9824
191.408	57.1548
194.301	44.4531
197.194	42.7905
200.087	122.828
202.979	111.165
205.872	113.463
208.765	178.91
211.657	158.767
214.55	200.397
217.443	273.012
220.335	345.993
223.228	495.583
226.121	580.516
229.013	641.198
231.906	787.275
234.799	881.039
237.692	1085.2
240.584	1160.64
243.477	1214.12
246.37	1273.76
249.262	1361.57
252.155	1383.89
255.048	1481.23
257.941	1455.87
260.833	1584.51
263.726	1592.1
266.619	1617.46
269.511	1545.23
272.404	1566.09
275.297	1465.07
278.19	1345.39
281.082	1272.98
283.975	1138.27
286.868	1158.7
289.76	937.333
292.653	833.782
295.546	815.435
298.438	859.811
301.331	988.999
304.224	1185.2
307.116	1446.62
310.009	1751.51
312.902	2058.32
315.795	2351
318.687	2587.88
321.58	2815.64
324.473	2773.98
327.365	2884.89
330.258	2915.97
333.151	2909.7
336.043	2829.41
338.936	2622.45
341.829	2218.36
344.721	1623.3
347.614	1089.64
350.507	586.418
353.4	308.118
356.292	76.3125
359.185	29.9854
362.078	99.6279
364.97	100.228
367.863	96.5208
370.756	53.9642
373.649	26.6543
376.541	5.823
379.434	18.7747
382.327	21.896
385.219	58.5416
388.112	96.7869
391.005	136.335
393.897	124.416
396.79	178.921
399.683	193.046
402.575	219.876
405.468	232.649
408.361	262.721
411.254	283.052
414.146	303.067
417.039	322.585
419.932	310.247
422.824	330.116
425.717	278.869
428.61	272.825
431.502	249.992
434.395	217.452
437.288	204.312
440.181	203.58
443.073	182.323
445.966	206.145
448.859	169.638
451.751	154.443
454.644	161.478
457.537	159.191
460.43	136.628
463.322	117.78
466.215	137.372
469.108	112.429
472	122.207
474.893	112.43
477.786	97.3958
480.678	95.2578
483.571	86.6689
486.464	74.8041
489.356	62.7141
492.249	69.366
495.142	78.438
498.035	62.0791
500.927	60.5162
503.82	44.2681
506.713	42.8646
509.605	43.4993
512.498	65.2933
515.391	34.3761
518.284	38.8666
521.176	38.2886
524.069	29.3
526.962	26.2473
529.854	30.2788
532.747	9.18481
535.64	11.8544
538.533	11.2864
541.425	6.39441
544.318	11.1322
547.211	18.1201
550.103	13.593
552.996	2.09766
555.889	15.9452
558.781	25.0783
561.674	23.6143
564.567	14.7752
567.459	12.4285
570.352	16.262
573.245	8.63428
576.138	14.1251
579.03	38.7538
581.923	9.35693
584.816	9.77856
587.708	11.6439
590.601	3.91455
593.494	10.5331
596.386	31.2232
599.279	10.258
602.172	14.8536
605.064	15.1391
607.957	1.71204
610.85	12.9628
613.743	9.10205
616.635	2.01697
619.528	0.126343
622.421	7.32532
625.313	16.0505
628.206	42.8381
631.099	30.5211
633.991	22.6311
636.884	40.3068
639.777	23.0703
642.67	15.9934
645.562	40.3205
648.455	8.1319
651.348	22.2296
654.24	13.3622
657.133	27.9437
660.026	29.4229
662.918	19.8386
665.811	27.9933
668.704	6.85901
671.597	24.5053
674.489	10.8702
677.382	36.6287
680.275	19.0664
683.167	19.5909
686.06	3.59332
688.953	28.3397
691.846	13.9084
694.738	8.39734
697.631	11.2849
700.524	34.8224
703.416	38.4945
706.309	18.5714
709.202	27.3774
712.094	29.2545
714.987	12.6838
717.88	32.7818
720.773	29.748
723.665	28.3764
726.558	26.2965
729.451	15.6357
732.343	45.7401
735.236	32.3657
738.129	6.45075
741.021	33.2602
743.914	12.394
746.807	21.4694
749.699	18.9159
752.592	31.5194
755.485	23.5015
758.378	30.1816
761.27	26.3832
764.163	18.884
767.056	22.6437
769.948	38.9639
772.841	44.0096
775.734	18.9755
778.626	9.50793
781.519	34.2902
784.412	8.08246
787.305	27.2215
790.197	5.79431
793.09	19.5242
795.983	10.5329
798.875	26.2648
801.768	24.7325
804.661	16.7803
807.553	15.0052
810.446	21.3463
813.339	6.97369
816.232	30.5579
819.124	23.9508
822.017	14.7012
824.91	22.2229
827.802	6.16724
830.695	28.3473
833.588	9.43463
836.481	36.5731
839.373	31.066
842.266	22.6865
845.159	31.9713
848.051	19.866
850.944	15.9533
853.837	18.4462
856.729	21.7023
859.622	12.603
862.515	17.0962
865.408	16.4663
868.3	12.0831
871.193	15.8998
874.086	8.341
876.978	10.234
879.871	20.4042
882.764	13.5363
885.656	17.9828
888.549	22.8426
891.442	20.753
894.335	10.6771
897.227	3.59351
900.12	14.7368
903.013	1.71124
905.905	17.4691
908.798	14.7571
911.691	21.9961
914.583	2.30743
917.476	28.9297
920.369	16.8973
923.261	17.7713
926.154	37.0561
929.047	6.04748
931.94	25.2152
934.832	8.96362
937.725	19.2421
940.618	13.7366
943.51	1.13434
946.403	28.7832
949.296	12.3893
952.188	10.2781
955.081	11.1555
957.974	28.6457
960.867	0.403259
963.759	21.8898
966.652	16.3037
969.545	3.58106
972.437	7.22308
975.33	12.6923
978.223	6.50507
981.115	4.83972
984.008	23.1304
986.901	27.6242
989.794	2.39954
992.686	26.5269
995.579	14.6013
998.472	17.7795
1001.36	24.3174
1004.26	22.3044
1007.15	14.6739
1010.04	28.0085
1012.93	26.6026
1015.83	21.2803
1018.72	12.0891
1021.61	29.309
1024.51	5.66257
1027.4	8.95822
1030.29	17.9766
1033.18	0.487579
1036.08	21.45
1038.97	25.7832
1041.86	7.95062
1044.76	30.5078
1047.65	24.6022
1050.54	16.8638
1053.43	13.9128
1056.33	15.712
1059.22	14.4881
1062.11	14.9428
1065	7.09634
1067.9	21.1973
1070.79	32.4435
1073.68	28.8203
1076.58	3.04556
1079.47	13.2169
1082.36	5.61322
1085.25	1.54047
1088.14	5.42163
1091.04	2.03845
1093.93	5.63132
1096.82	0.361389
1099.72	26.7462
1102.61	20.5947
1105.5	16.1351
1108.39	42.6778
1111.29	46.9162
1114.18	27.8791
1117.07	35.8726
1119.96	24.0076
1122.86	27.3219
1125.75	41.2518
1128.64	69.6238
1131.54	65.2134
1134.43	67.4093
1137.32	91.4739
1140.21	90.4255
1143.11	110.752
1146	121.766
1148.89	88.8626
1151.79	89.6681
1154.68	90.0732
1157.57	100.721
1160.46	65.7836
1163.36	78.4093
1166.25	49.4862
1169.14	62.4654
1172.03	70.4861
1174.93	84.2656
1177.82	57.0332
1180.71	50.2085
1183.6	43.0739
1186.5	43.7719
1189.39	21.0117
1192.28	38.9554
1195.17	19.6905
1198.07	11.1474
1200.96	24.7664
1203.85	31.182
1206.75	6.43237
1209.64	11.1577
1212.53	10.6913
1215.42	8.65857
1218.32	40.6723
1221.21	2.87152
1224.1	18.8394
1226.99	1.64014
1229.89	35.0838
1232.78	30.3095
1235.67	9.31043
1238.57	17.1312
1241.46	17.6881
