Measurement: Raman, 780 nm, unoriented, Raman Data Processed
Mineral: Bendadaite
Rruff sample: R080112
Ideal chemistry: Fe^2+^Fe^3+^_2_(As^5+^O_4_)_2_(OH)_2_4H_2_O
Locality: Almerindo mine, Lin√≥polis district, Divino das Laranjeiras, Minas Gerais, Brazil
Source: Luiz Menezes
Description: Clusters of colorless to yellow acicular crystals
Raman shift (cm-1)	intensity
102.648	0
106.023	3.13141
109.397	2.33746
112.772	6.01276
116.147	13.032
119.522	4.67584
122.897	2.17481
126.272	8.87109
129.646	3.41333
133.021	0.288757
136.396	5.34418
139.771	7.73315
143.146	1.60321
146.52	2.13055
149.895	3.42889
153.27	8.64044
156.645	9.30469
160.02	12.9237
163.395	8.29382
166.769	5.09552
170.144	11.9511
173.519	10.0306
176.894	11.4185
180.269	7.46277
183.643	4.68744
187.018	0.5672
190.393	5.92248
193.768	6.3277
197.143	4.29297
200.518	0.848816
203.892	1.76898
207.267	3.56
210.642	8.00275
214.017	7.12805
217.392	11.0543
220.766	9.26154
224.141	9.6217
227.516	1.67456
230.891	9.04926
234.266	11.6641
237.641	7.51917
241.015	11.1184
244.39	13.5082
247.765	18.9865
251.14	13.5488
254.515	23.2951
257.889	20.3262
261.264	22.3955
264.639	19.1199
268.014	19.789
271.389	17.572
274.764	15.1154
278.138	10.9261
281.513	20.8446
284.888	16.9608
288.263	15.5384
291.638	13.0285
295.012	15.3925
298.387	21.5272
301.762	15.1763
305.137	8.29157
308.512	13.1634
311.887	10.0242
315.261	17.577
318.636	8.11816
322.011	8.03156
325.386	0.007019
328.761	3.22247
332.135	4.38348
335.51	6.95606
338.885	1.88214
342.26	3.46234
345.635	5.01428
349.01	4.78851
352.384	4.79925
355.759	4.26245
359.134	6.65375
362.509	5.96258
365.884	4.00378
369.258	3.51801
372.633	5.06036
376.008	3.42596
379.383	0.989319
382.758	7.71845
386.132	4.89008
389.507	2.17322
392.882	3.57141
396.257	6.48517
399.632	1.74725
403.007	2.83276
406.381	0.962952
409.756	6.32214
413.131	14.5537
416.506	5.17523
419.881	6.06546
423.255	7.78015
426.63	8.63684
430.005	7.42685
433.38	10.0112
436.755	12.5495
440.13	3.86575
443.504	10.399
446.879	9.5809
450.254	12.53
453.629	6.93497
457.004	9.93753
460.378	13.2199
463.753	13.4779
467.128	13.687
470.503	9.26083
473.878	11.3632
477.252	13.003
480.627	7.66186
484.002	17.3749
487.377	13.4744
490.752	19.9136
494.127	16.6793
497.501	8.08225
500.876	11.013
504.251	9.31851
507.626	12.1158
511.001	5.51245
514.375	11.1467
517.75	14.6537
521.125	5.67593
524.5	5.95364
527.875	4.59268
531.25	7.94663
534.624	3.65997
537.999	1.96158
541.374	7.48517
544.749	6.51852
548.124	3.88931
551.499	2.80301
554.873	2.17618
558.248	1.00342
561.623	1.75513
564.998	7.5592
568.373	2.00632
571.747	2.59845
575.122	1.83462
578.497	3.88779
581.872	4.48279
585.247	0.686768
588.621	5.5123
591.996	6.14392
595.371	2.67917
598.746	3.14603
602.121	5.53397
605.495	5.51492
608.87	5.60736
612.245	7.871
615.62	10.2141
618.995	5.94135
622.37	9.22195
625.744	12.9506
629.119	11.5494
632.494	14.8337
635.869	7.01587
639.244	13.0585
642.619	11.4467
645.993	8.52445
649.368	7.99579
652.743	5.7381
656.118	3.15723
659.493	2.50793
662.867	12.3408
666.242	1.08228
669.617	3.67236
672.992	3.15021
676.367	5.17471
679.741	7.74606
683.116	0.62088
686.491	5.19052
689.866	0.971008
693.241	1.90283
696.615	0.630981
699.99	1.67438
703.365	2.14899
706.74	0.931458
710.115	0.571808
713.49	6.13861
716.864	9.00037
720.239	3.84259
723.614	2.54852
726.989	6.89105
730.364	3.55139
733.739	0.010345
737.113	3.11847
740.488	1.77646
743.863	2.17972
747.238	0.497467
750.613	1.18515
753.987	6.8804
757.362	1.41284
760.737	8.54748
764.112	4.34784
767.487	5.20682
770.861	2.63629
774.236	4.99576
777.611	6.70212
780.986	7.83466
784.361	4.19373
787.736	5.37057
791.11	7.17654
794.485	5.05276
797.86	1.83032
801.235	4.94617
804.61	5.18338
807.985	5.89062
811.359	5.10535
814.734	1.67697
818.109	9.84256
821.484	6.4613
824.859	4.82898
828.233	11.2957
831.608	5.80746
834.983	14.1793
838.358	19.2033
841.733	15.688
845.107	18.0976
848.482	16.0729
851.857	20.4566
855.232	15.1639
858.607	15.975
861.982	17.0546
865.356	16.6719
868.731	16.3922
872.106	14.7622
875.481	12.8505
878.856	13.3144
882.231	11.0531
885.605	12.3185
888.98	9.76468
892.355	4.36002
895.73	7.6008
899.105	9.90768
902.479	6.54218
905.854	0.205505
909.229	2.52722
912.604	5.86932
915.979	0.165192
919.353	5.11624
922.728	2.46738
926.103	3.8457
929.478	3.26767
932.853	4.38098
936.227	2.88226
939.602	2.23447
942.977	6.46558
946.352	8.03687
949.727	4.16397
953.102	0.087219
956.476	6.73514
959.851	4.06808
963.226	3.4343
966.601	1.49347
969.976	2.74152
973.351	2.08649
976.725	2.34522
980.1	2.1445
983.475	6.25775
986.85	4.35358
990.225	11.134
993.599	11.962
996.974	7.62503
1000.35	0.71936
1003.72	3.28537
1007.1	3.78207
1010.47	10.6834
1013.85	11.3015
1017.22	7.40414
1020.6	13.7341
1023.97	4.7598
1027.35	14.7463
1030.72	7.59653
1034.1	9.03741
1037.47	6.22241
1040.85	6.46341
1044.22	7.1051
1047.6	11.1841
1050.97	12.4812
1054.35	8.63699
1057.72	7.56104
1061.1	10.3377
1064.47	7.59845
1067.85	7.69461
1071.22	6.32501
1074.6	6.88446
1077.97	7.06229
1081.35	5.16135
1084.72	6.47412
1088.09	8.85272
1091.47	3.6496
1094.84	8.48349
1098.22	4.00928
1101.59	6.34198
1104.97	7.55032
1108.34	3.50034
1111.72	6.78131
1115.09	3.94437
1118.47	2.04748
1121.84	5.32855
1125.22	0.470276
1128.59	0.046997
1131.97	2.20956
1135.34	3.72974
1138.72	3.93256
1142.09	8.77402
1145.47	1.47931
1148.84	4.55807
1152.22	2.11224
1155.59	7.4476
1158.96	8.99094
1162.34	3.83874
1165.71	4.86984
1169.09	3.64014
1172.46	6.8743
1175.84	8.43121
1179.21	8.05542
1182.59	5.78507
1185.96	1.57959
1189.34	10.9844
1192.71	8.48923
1196.09	6.19525
1199.46	7.75421
1202.84	3.78839
1206.21	9.67218
1209.59	3.83469
1212.96	5.56885
1216.34	6.62176
1219.71	9.80014
1223.09	6.85217
1226.46	7.35889
1229.84	7.45764
1233.21	2.90027
1236.59	1.91745
1239.96	3.83267
1243.34	3.59854
1246.71	1.16013
1250.09	3.97751
1253.46	8.76926
1256.84	1.00522
1260.21	4.14111
1263.59	9.36411
1266.96	11.3748
1270.33	6.4115
1273.71	4.48929
1277.08	2.31543
1280.46	7.45993
1283.83	10.5468
