Measurement: Raman, 785 nm, unoriented, Raman Data Processed
Mineral: Benjaminite
Rruff sample: R070399
Ideal chemistry: Ag_3_Bi_7_S_12_
Locality: Outlaw Mine, Round Mountain District, Nye County, Nevada, USA
Source: Michael Scott
Description: Black polished crystals embedded in epoxy, co-type specimen
Raman shift (cm-1)	intensity
158.142	0
161.035	19.5178
163.928	60.928
166.821	54.2705
169.713	32.6708
172.606	33.609
175.499	40.3695
178.391	4.28699
181.284	15.5245
184.177	0.105682
187.069	8.8385
189.962	9.2106
192.855	15.2733
195.748	14.43
198.64	25.9704
201.533	22.1079
204.426	39.3751
207.318	34.9384
210.211	38.5092
213.104	31.2534
215.996	37.4339
218.889	44.7195
221.782	38.5694
224.674	14.2147
227.567	40.9446
230.46	13.3126
233.353	12.6887
236.245	27.2167
239.138	30.6613
242.031	28.522
244.923	27.0833
247.816	40.9229
250.709	45.9605
253.601	28.3163
256.494	14.0188
259.387	39.0902
262.28	23.5144
265.172	26.8848
268.065	23.3994
270.958	39.9921
273.85	22.6401
276.743	34.5798
279.636	15.5618
282.529	13.0826
285.421	23.5053
288.314	26.5411
291.207	19.8751
294.099	19.6055
296.992	22.1183
299.885	11.1215
302.777	26.7744
305.67	12.9775
308.563	14.2642
311.455	8.81935
314.348	10.5209
317.241	8.20942
320.134	2.2388
323.026	9.72014
325.919	4.527
328.812	10.558
331.704	10.7617
334.597	6.23455
337.49	12.719
340.382	2.27722
343.275	16.0969
346.168	15.6808
349.061	21.0901
351.953	13.0808
354.846	9.27737
357.739	2.76268
360.631	8.51783
363.524	11.2387
366.417	27.7373
369.31	1.16498
372.202	12.2366
375.095	10.5235
377.988	20.1379
380.88	21.7543
383.773	28.7319
386.666	12.5955
389.558	8.2922
392.451	7.11961
395.344	28.0364
398.236	11.2449
401.129	14.9278
404.022	10.6507
406.915	2.91351
409.807	9.65992
412.7	14.616
415.593	15.5512
418.485	13.9621
421.378	9.87808
424.271	37.5884
427.163	31.195
430.056	8.66968
432.949	15.4754
435.842	21.2659
438.734	17.6974
441.627	31.5847
444.52	0.996483
447.412	11.8449
450.305	2.82578
453.198	8.44594
456.091	2.05242
458.983	14.1187
461.876	13.0954
464.769	32.0597
467.661	2.1118
470.554	27.5929
473.447	30.7201
476.339	13.4599
479.232	0.86174
482.125	21.2424
485.017	30.8511
487.91	1.21278
490.803	9.69666
493.696	1.84987
496.588	18.4653
499.481	16.3107
502.374	17.9986
505.266	23.3032
508.159	11.6962
511.052	19.4081
513.944	22.8971
516.837	10.1676
519.73	23.827
522.623	21.1876
525.515	15.6396
528.408	13.2631
531.301	9.14512
534.193	16.3149
537.086	13.2571
539.979	1.68836
542.871	15.9342
545.764	27.7719
548.657	13.7394
551.55	19.503
554.442	15.5198
557.335	46.7528
560.228	25.0808
563.12	22.0143
566.013	14.8346
568.906	14.3939
571.798	12.1229
574.691	12.4596
577.584	4.30244
580.477	11.509
583.369	16.9747
586.262	30.8378
589.155	15.5738
592.047	8.59692
594.94	31.7413
597.833	0.274147
600.726	34.424
603.618	15.0595
606.511	26.4802
609.404	2.69984
612.296	6.38711
615.189	1.00528
618.082	23.7917
620.974	2.71621
623.867	19.033
626.76	24.8258
629.653	30.4977
632.545	32.5602
635.438	31.295
638.331	33.9338
641.223	11.5551
644.116	25.8308
647.009	24.8437
649.901	1.45422
652.794	20.7974
655.687	1.08045
658.58	9.70157
661.472	9.17506
664.365	12.756
667.258	22.315
670.15	14.8093
673.043	26.2509
675.936	25.4284
678.828	37.0248
681.721	24.1369
684.614	11.4094
687.506	32.0571
690.399	33.536
693.292	4.9435
696.185	23.2284
699.077	8.51664
701.97	4.70333
704.863	10.454
707.755	20.4505
710.648	23.8744
713.541	18.8793
716.433	27.2315
719.326	9.43844
722.219	31.0768
725.112	25.9392
728.004	12.6525
730.897	15.1122
733.79	10.8162
736.682	4.72284
739.575	8.80902
742.468	14.3544
745.361	9.91859
748.253	20.2922
751.146	27.6385
754.039	21.3518
756.931	28.2827
759.824	33.998
762.717	5.82177
765.609	17.4148
768.502	26.52
771.395	15.6754
774.288	3.09543
777.18	22.0627
780.073	4.2681
782.966	22.4589
785.858	16.2955
788.751	7.44252
791.644	22.2876
794.536	19.7979
797.429	12.7498
800.322	28.2467
803.215	30.557
806.107	22.3914
809	18.0224
811.893	9.90081
814.785	15.1697
817.678	3.15524
820.571	8.27216
823.463	11.4565
826.356	5.02634
829.249	9.3345
832.141	18.9854
835.034	16.625
837.927	30.6916
840.82	13.2747
843.712	18.2218
846.605	15.8521
849.498	9.41101
852.39	21.817
855.283	8.08991
858.176	13.2325
861.068	7.08899
863.961	5.96484
866.854	35.3435
869.747	20.9756
872.639	25.1507
875.532	10.5938
878.425	17.2142
881.317	10.6356
884.21	13.741
887.103	6.02794
889.995	2.5416
892.888	5.71426
895.781	21.1628
898.674	6.16384
901.566	31.6895
904.459	22.5876
907.352	13.0929
910.244	17.388
913.137	12.6766
916.03	36.9453
918.923	4.73838
921.815	10.1725
924.708	16.223
927.601	9.52752
930.493	9.66164
933.386	12.3288
936.279	12.7662
939.171	15.1959
942.064	19.175
944.957	3.55561
947.85	32.6383
950.742	16.8661
953.635	1.22613
956.528	22.1722
959.42	16.8075
962.313	41.2727
965.206	25.796
968.098	2.31842
970.991	2.19041
973.884	8.03746
976.777	8.43025
979.669	21.2624
982.562	18.8592
985.455	14.2707
988.347	27.5042
991.24	9.34889
994.133	10.3072
997.025	34.1357
999.918	26.5757
1002.81	16.5533
1005.7	23.8333
1008.6	7.41172
1011.49	14.4794
1014.38	2.11157
1017.27	13.5266
1020.17	24.234
1023.06	30.5147
1025.95	24.0383
1028.85	30.7403
1031.74	17.9094
1034.63	11.2396
1037.52	22.8333
1040.42	19.1567
1043.31	3.11938
1046.2	23.2968
1049.09	19.2521
1051.99	9.43184
1054.88	4.54793
1057.77	21.4584
1060.66	35.3522
1063.56	32.9091
1066.45	23.5377
1069.34	30.547
1072.24	26.5744
1075.13	43.1459
1078.02	20.2689
1080.91	13.8219
1083.81	8.06179
1086.7	8.60594
1089.59	1.08556
1092.48	33.8489
1095.38	12.9644
1098.27	30.6065
1101.16	26.0231
1104.06	16.0967
1106.95	36.1177
1109.84	42.2111
1112.73	33.9544
1115.63	27.6612
1118.52	7.31192
1121.41	5.84505
1124.3	29.6727
1127.2	16.6402
1130.09	9.90457
1132.98	27.8762
1135.88	37.5479
1138.77	30.9632
1141.66	11.664
1144.55	35.6402
1147.45	15.314
1150.34	21.5082
1153.23	7.74488
1156.12	20.6811
1159.02	14.1783
1161.91	12.6823
1164.8	19.1773
1167.69	10.7582
1170.59	25.7401
1173.48	22.3549
1176.37	52.5372
1179.27	35.0842
1182.16	13.46
1185.05	17.266
1187.94	15.6378
1190.84	19.7851
1193.73	5.15002
1196.62	18.9851
1199.51	14.8672
1202.41	16.0378
1205.3	25.8201
1208.19	27.2435
1211.09	21.0297
1213.98	11.1927
1216.87	36.757
1219.76	28.2477
1222.66	9.8535
1225.55	25.486
1228.44	5.72704
1231.33	21.0364
1234.23	24.8698
1237.12	13.0242
1240.01	2.10033
