Measurement: Raman, 532 nm, unoriented, Raman Data Processed
Mineral: Benjaminite
Rruff sample: R070399
Ideal chemistry: Ag_3_Bi_7_S_12_
Locality: Outlaw Mine, Round Mountain District, Nye County, Nevada, USA
Source: Michael Scott
Description: Black polished crystals embedded in epoxy, co-type specimen
Raman shift (cm-1)	intensity
123.145	0
126.52	0.500816
129.895	19.7316
133.27	6.19508
136.645	15.8437
140.019	11.6766
143.394	13.7984
146.769	16.8432
150.144	17.7155
153.519	23.9208
156.894	28.3358
160.268	12.0547
163.643	32.162
167.018	32.3323
170.393	39.5243
173.768	35.3943
177.143	24.531
180.517	23.9054
183.892	31.2488
187.267	11.0291
190.642	30.6186
194.017	15.3044
197.391	27.7812
200.766	25.5379
204.141	35.8483
207.516	54.9392
210.891	32.2097
214.266	38.8245
217.64	40.0566
221.015	32.7954
224.39	62.2369
227.765	16.3884
231.14	29.1863
234.514	39.5225
237.889	32.5982
241.264	26.9442
244.639	41.7701
248.014	28.2206
251.388	29.7635
254.763	34.1253
258.138	20.3493
261.513	28.2846
264.888	21.9707
268.263	31.9852
271.637	17.9147
275.012	2.39625
278.387	4.48576
281.762	8.84697
285.137	13.6869
288.512	13.3837
291.886	0.815277
295.261	15.1182
298.636	38.1013
302.011	6.50326
305.386	3.83666
308.76	12.6259
312.135	9.82517
315.51	9.01718
318.885	5.95956
322.26	11.6832
325.635	3.9122
329.009	0.667831
332.384	5.23154
335.759	3.45015
339.134	11.0155
342.509	21.4395
345.883	16.5978
349.258	16.7804
352.633	25.7727
356.008	26.6173
359.383	18.7564
362.757	7.70313
366.132	12.1788
369.507	18.4555
372.882	15.9245
376.257	9.98975
379.632	30.3028
383.006	20.6267
386.381	24.4592
389.756	21.8009
393.131	13.7543
396.506	11.355
399.88	15.1598
403.255	3.79866
406.63	8.13757
410.005	21.164
413.38	21.1084
416.755	16.8159
420.129	15.5458
423.504	7.2616
426.879	15.675
430.254	29.4765
433.629	30.5949
437.003	8.04237
440.378	8.8466
443.753	12.4761
447.128	15.7933
450.503	25.0333
453.878	11.0917
457.252	6.64741
460.627	13.0198
464.002	10.918
467.377	15.7956
470.752	13.3298
474.127	31.7932
477.501	17.5801
480.876	21.9687
484.251	33.2179
487.626	32.0774
491.001	25.7438
494.375	23.9991
497.75	5.2518
501.125	3.58493
504.5	5.3797
507.875	11.2659
511.25	28.6297
514.624	21.3799
517.999	1.54092
521.374	21.5676
524.749	35.0457
528.124	18.331
531.498	4.21672
534.873	29.6427
538.248	13.0549
541.623	13.8521
544.998	0.99493
548.372	9.36614
551.747	13.4579
555.122	14.1183
558.497	23.4039
561.872	26.183
565.247	19.6577
568.621	9.67462
571.996	18.9316
575.371	12.4143
578.746	11.8466
582.121	11.9088
585.495	5.26311
588.87	0.546825
592.245	6.62096
595.62	22.5511
598.995	9.71972
602.37	18.616
605.744	15.8356
609.119	9.26899
612.494	34.3381
615.869	28.4625
619.244	14.7344
622.619	10.5523
625.993	9.8629
629.368	9.00016
632.743	13.6766
636.118	11.8301
639.493	16.932
642.867	28.9785
646.242	2.97788
649.617	18.7325
652.992	11.9155
656.367	24.4666
659.741	13.5423
663.116	0.134346
666.491	8.50095
669.866	11.8017
673.241	25.5419
676.616	3.2558
679.99	13.4347
683.365	30.6433
686.74	26.3152
690.115	21.29
693.49	35.9983
696.865	10.7404
700.239	0.258862
703.614	14.6622
706.989	34.0614
710.364	4.85091
713.739	8.78923
717.113	7.27921
720.488	13.5817
723.863	8.37825
727.238	13.6352
730.613	14.7259
733.987	27.1063
737.362	20.1212
740.737	7.93501
744.112	19.5434
747.487	17.224
750.862	12.2561
754.236	26.3405
757.611	5.00356
760.986	12.753
764.361	21.3044
767.736	12.615
771.111	24.5549
774.485	26.9803
777.86	13.6491
781.235	26.0274
784.61	16.0043
787.985	18.7286
791.359	7.6009
794.734	0.009911
798.109	4.44815
801.484	7.31286
804.859	7.86006
808.234	21.1289
811.608	23.0856
814.983	18.1594
818.358	36.9157
821.733	8.11382
825.108	17.705
828.482	16.9293
831.857	19.9059
835.232	16.7728
838.607	14.3991
841.982	4.16565
845.356	14.6453
848.731	18.0061
852.106	25.1235
855.481	0.061985
858.856	19.7958
862.231	17.164
865.605	19.7269
868.98	20.8067
872.355	9.95186
875.73	7.27803
879.105	4.36267
882.48	0.754646
885.854	2.77414
889.229	9.57204
892.604	6.67883
895.979	10.7803
899.354	4.56813
902.729	15.504
906.103	22.8301
909.478	20.1375
912.853	10.4137
916.228	9.30735
919.602	7.55992
922.977	5.63886
926.352	12.5256
929.727	21.5084
933.102	19.5945
936.477	6.72729
939.851	17.4126
943.226	6.69962
946.601	1.0298
949.976	1.66922
953.351	12.2211
956.726	12.1219
960.1	6.06564
963.475	17.4479
966.85	9.19804
970.225	0.721954
973.6	32.802
976.974	27.7274
980.349	5.78779
983.724	16.8148
987.099	15.3901
990.474	10.4147
993.848	8.44119
997.223	18.3329
1000.6	11.1439
1003.97	16.8797
1007.35	10.2479
1010.72	28.0028
1014.1	16.0329
1017.47	8.83961
1020.85	37.1468
1024.22	48.9322
1027.6	27.5408
1030.97	8.5797
1034.35	16.4786
1037.72	9.27883
1041.1	17.0079
1044.47	3.83445
1047.85	2.0307
1051.22	24.552
1054.6	10.0498
1057.97	11.3263
1061.35	29.9701
1064.72	25.4596
1068.09	23.4516
1071.47	6.97416
1074.84	15.6569
1078.22	0.278629
1081.59	17.6709
1084.97	19.0507
1088.34	28.6841
1091.72	23.8186
1095.09	25.9264
1098.47	31.1119
1101.84	25.004
1105.22	15.4578
1108.59	5.81143
1111.97	29.0828
1115.34	13.3318
1118.72	10.1395
1122.09	18.0755
1125.47	13.8268
1128.84	26.8722
1132.22	37.3964
1135.59	17.7233
1138.97	16.9347
1142.34	26.5937
1145.71	23.3232
1149.09	9.8741
1152.46	19.5057
1155.84	4.54965
1159.21	16.6822
1162.59	10.9374
1165.96	22.934
1169.34	9.14111
1172.71	12.3898
1176.09	7.59034
1179.46	29.2284
1182.84	23.0006
1186.21	35.0188
1189.59	2.5769
1192.96	12.4343
1196.34	12.2581
1199.71	9.34535
1203.09	12.9654
1206.46	30.4284
1209.84	27.8566
1213.21	17.2153
1216.59	19.8615
1219.96	33.8802
1223.34	22.8549
1226.71	22.0737
1230.09	21.9343
1233.46	13.8397
1236.84	27.2333
1240.21	27.1277
1243.59	17.0351
1246.96	36.3975
1250.34	27.4387
1253.71	0.872826
1257.08	29.4687
1260.46	19.67
1263.83	11.0235
1267.21	14.027
1270.58	8.89922
1273.96	3.1627
1277.33	4.18414
1280.71	14.7489
1284.08	0.264053
1287.46	12.421
1290.83	27.4052
