Measurement: Raman, 785 nm, unoriented, Raman Data Processed
Mineral: Benleonardite
Rruff sample: R070545
Ideal chemistry: Ag_15_Cu(Sb,As)_2_S_7_Te_4_
Locality: Moctezuma mine, Moctezuma, Municipio de Moctezuma, Sonora, Mexico
Source: Michael Scott
Description: Lead-grey to black-grey metallic massive associated with azurite, malachite and barite, co-type specimen
Raman shift (cm-1)	intensity
173.951	0
176.843	6.75977
179.736	51.0884
182.629	31.0371
185.522	45.9929
188.414	11.667
191.307	31.4793
194.2	44.0393
197.092	76.0803
199.985	54.7651
202.878	67.5164
205.77	83.6519
208.663	49.5935
211.556	10.8777
214.448	3.93701
217.341	18.1553
220.234	16.657
223.127	42.3247
226.019	11.4436
228.912	4.70068
231.805	63.0159
234.697	9.72241
237.59	58.5955
240.483	32.0171
243.375	47.6211
246.268	38.3901
249.161	33.3794
252.054	51.8381
254.946	49.0383
257.839	47.8997
260.732	97.344
263.624	67.6919
266.517	39.5391
269.41	82.4314
272.302	52.0977
275.195	77.53
278.088	33.645
280.981	70.8897
283.873	44.0549
286.766	37.3076
289.659	2.66187
292.551	35.4133
295.444	32.887
298.337	30.6816
301.229	18.6062
304.122	51.9043
307.015	21.4861
309.908	53.5425
312.8	16.0117
315.693	53.9619
318.586	25.0159
321.478	1.51367
324.371	31.4338
327.264	34.894
330.156	41.5759
333.049	1.24756
335.942	16.7158
338.834	17.022
341.727	50.3765
344.62	3.55908
347.513	33.4375
350.405	35.3662
353.298	5.14673
356.191	30.4661
359.083	8.0791
361.976	3.18042
364.869	27.7651
367.762	4.2749
370.654	22.8962
373.547	9.16504
376.44	36.5447
379.332	18.3477
382.225	5.7605
385.118	23.2402
388.01	39.4124
390.903	7.5354
393.796	32.7395
396.688	21.7386
399.581	34.6425
402.474	54.1504
405.367	35.7554
408.259	19.1408
411.152	32.2797
414.045	43.3484
416.937	24.2755
419.83	51.2728
422.723	4.25134
425.615	32.2659
428.508	9.32275
431.401	25.6213
434.293	19.6108
437.186	30.5382
440.079	44.8469
442.972	3.36743
445.864	24.5222
448.757	27.7024
451.65	12.3801
454.542	6.82324
457.435	22.0697
460.328	13.1295
463.221	7.40808
466.113	1.70325
469.006	13.2168
471.899	25.0321
474.791	40.994
477.684	44.1948
480.577	49.2065
483.469	43.3657
486.362	41.5286
489.255	70.6355
492.147	68.4795
495.04	46.0641
497.933	33.9662
500.826	88.9929
503.718	73.6191
506.611	51.7788
509.504	64.1144
512.396	43.9958
515.289	26.1677
518.182	7.06457
521.074	25.4961
523.967	44.0601
526.86	40.9901
529.753	70.63
532.645	10.3762
535.538	29.8645
538.431	58.6982
541.323	22.0212
544.216	18.6879
547.109	31.674
550.001	20.1963
552.894	6.79663
555.787	21.4535
558.68	23.8547
561.572	1.17102
564.465	25.2097
567.358	11.0289
570.25	26.2418
573.143	37.7726
576.036	9.53052
578.928	47.1818
581.821	34.9683
584.714	16.3297
587.607	38.7565
590.499	39.3962
593.392	30.0432
596.285	17.5665
599.177	30.8374
602.07	36.6219
604.963	40.3065
607.856	22.551
610.748	4.18359
613.641	34.7572
616.534	34.4667
619.426	29.2175
622.319	41.8638
625.212	28.2118
628.104	3.32068
630.997	26.717
633.89	24.8848
636.782	57.246
639.675	31.7516
642.568	27.6113
645.461	9.96875
648.353	53.7418
651.246	24.7069
654.139	22.3517
657.031	51.2402
659.924	6.86914
662.817	50.4631
665.709	15.6243
668.602	41.8219
671.495	19.1517
674.388	29.9307
677.28	23.2076
680.173	19.8303
683.066	30.5529
685.958	13.1243
688.851	5.08557
691.744	34.1084
694.636	19.0947
697.529	12.6205
700.422	47.1754
703.314	29.8909
706.207	16.9128
709.1	15.8864
711.993	16.6008
714.885	20.0858
717.778	16.3965
720.671	44.8018
723.563	34.1435
726.456	6.64917
729.349	40.2154
732.241	13.057
735.134	25.5784
738.027	16.8174
740.92	17.1003
743.812	17.9392
746.705	39.6726
749.598	18.4935
752.49	51.0583
755.383	2.34448
758.276	53.7253
761.168	28.9189
764.061	48.0293
766.954	36.8094
769.847	6.06274
772.739	40.8512
775.632	42.5752
778.525	38.2675
781.417	33.6376
784.31	23.3352
787.203	38.0968
790.096	39.7219
792.988	6.0697
795.881	12.6146
798.774	22.4305
801.666	15.8966
804.559	44.1218
807.452	26.5424
810.344	34.4086
813.237	18.0151
816.13	16.2583
819.023	24.1406
821.915	12.103
824.808	26.9967
827.701	21.8026
830.593	26.0084
833.486	31.1135
836.379	26.2157
839.271	52.6331
842.164	8.00671
845.057	33.1776
847.949	34.2559
850.842	29.2759
853.735	27.0831
856.628	2.84692
859.52	26.6224
862.413	3.77917
865.306	35.2887
868.198	24.4739
871.091	10.7755
873.984	24.2064
876.876	10.3767
879.769	6.87354
882.662	34.7058
885.554	16.8463
888.447	2.41577
891.34	47.8895
894.233	43.551
897.125	32.8391
900.018	25.5659
902.911	8.74219
905.803	29.1987
908.696	32.7103
911.589	13.6741
914.481	42.4983
917.374	11.9745
920.267	3.19128
923.16	18.0372
926.052	26.0598
928.945	21.8887
931.838	32.3832
934.73	18.9745
937.623	6.67688
940.516	19.0962
943.408	6.52161
946.301	2.38647
949.194	16.038
952.087	7.77673
954.979	10.1517
957.872	23.0204
960.765	9.53711
963.657	42.8762
966.55	10.9927
969.443	19.6207
972.335	0.595215
975.228	39.5737
978.121	29.1396
981.014	19.8038
983.906	16.4961
986.799	32.463
989.692	23.7838
992.584	24.5913
995.477	1.14441
998.37	23.6108
1001.26	8.91943
1004.15	47.8916
1007.05	30.1725
1009.94	19.597
1012.83	34.507
1015.73	3.98096
1018.62	8.53442
1021.51	41.6185
1024.4	28.5181
1027.3	33.0911
1030.19	38.0355
1033.08	12.3665
1035.97	1.46204
1038.87	14.7511
1041.76	16.4868
1044.65	38.0262
1047.55	34.6974
1050.44	12.6787
1053.33	15.4409
1056.22	34.7739
1059.12	40.3898
1062.01	17.1985
1064.9	7.9624
1067.8	39.8436
1070.69	31.4867
1073.58	32.7278
1076.47	15.0437
1079.37	15.5048
1082.26	27.1477
1085.15	16.3344
1088.04	18.2935
1090.94	31.7073
1093.83	2.32043
1096.72	34.6993
1099.61	9.90015
1102.51	21.3256
1105.4	19.8059
1108.29	10.3256
1111.18	22.8339
1114.08	25.4374
1116.97	10.0264
1119.86	31.0743
1122.76	37.3946
1125.65	12.6169
1128.54	16.3705
1131.43	20.0386
1134.33	25.5364
1137.22	25.9818
1140.11	16.4667
1143.01	14.7247
1145.9	32.2335
1148.79	47.8162
1151.68	4.63574
1154.58	28.7051
1157.47	20.8174
1160.36	4.32263
1163.25	46.9713
1166.15	5.68457
1169.04	30.0419
1171.93	24.3037
1174.82	36.6326
1177.72	17.7637
1180.61	32.002
1183.5	10.2036
1186.39	14.4398
1189.29	40.0195
1192.18	11.678
1195.07	11.4967
1197.97	17.019
1200.86	18.285
1203.75	44.9695
1206.64	50.9198
1209.54	20.6272
1212.43	34.3646
1215.32	41.1366
1218.21	12.5491
1221.11	25.8024
1224	18.9104
1226.89	47.3671
1229.79	48.9985
1232.68	56.303
1235.57	27.1102
1238.46	11.4735
1241.36	27.0802
1244.25	45.953
1247.14	9.89453
1250.04	74.551
1252.93	45.1191
1255.82	47.4696
1258.71	55.2649
1261.61	9.67529
1264.5	7.99219
