Measurement: Raman, 532 nm, unoriented, Raman Data Processed
Mineral: Benleonardite
Rruff sample: R070545
Ideal chemistry: Ag_15_Cu(Sb,As)_2_S_7_Te_4_
Locality: Moctezuma mine, Moctezuma, Municipio de Moctezuma, Sonora, Mexico
Source: Michael Scott
Description: Lead-grey to black-grey metallic massive associated with azurite, malachite and barite, co-type specimen
Raman shift (cm-1)	intensity
155.941	0
158.833	19.8578
161.726	6.04523
164.619	25.8237
167.512	6.59399
170.404	32.0726
173.297	25.4195
176.19	29.4651
179.082	6.42242
181.975	3.85815
184.868	25.508
187.761	40.7946
190.653	40.6454
193.546	57.0121
196.439	31.2757
199.331	48.2483
202.224	38.1035
205.117	44.4894
208.009	29.7432
210.902	26.9409
213.795	59.1099
216.688	49.2997
219.58	38.5079
222.473	48.1196
225.366	38.9175
228.258	34.3972
231.151	38.8043
234.044	47.6591
236.936	46.3671
239.829	62.472
242.722	45.537
245.614	56.095
248.507	56.8229
251.4	56.2834
254.293	56.9459
257.185	69.0139
260.078	62.9647
262.971	64.5606
265.863	63.9282
268.756	38.6304
271.649	37.0329
274.541	48.1861
277.434	39.267
280.327	26.9335
283.22	27.8843
286.112	43.952
289.005	44.6624
291.898	36.7454
294.79	36.5863
297.683	22.0565
300.576	6.3573
303.469	46.6651
306.361	26.6022
309.254	28.7495
312.147	22.7203
315.039	12.6659
317.932	6.27179
320.825	15.2435
323.717	24.7274
326.61	23.6764
329.503	10.1313
332.396	5.63959
335.288	0.377228
338.181	14.846
341.074	19.5901
343.966	26.6289
346.859	12.1538
349.752	22.1009
352.644	14.5057
355.537	26.7562
358.43	14.2389
361.322	27.6152
364.215	10.4218
367.108	11.5454
370.001	21.4324
372.893	15.2635
375.786	30.7778
378.679	3.28339
381.572	16.5626
384.464	8.57001
387.357	41.269
390.25	10.0415
393.142	21.3816
396.035	23.5389
398.928	13.6136
401.82	15.3447
404.713	22.6815
407.606	17.399
410.498	3.45956
413.391	25.1596
416.284	41.9442
419.177	9.93039
422.069	4.07156
424.962	6.2323
427.855	15.621
430.747	0.852783
433.64	15.632
436.533	32.124
439.425	13.9741
442.318	25.6092
445.211	26.8748
448.104	7.36865
450.996	11.1041
453.889	27.6647
456.782	30.5973
459.674	23.7819
462.567	36.7661
465.46	17.1271
468.353	23.3144
471.245	5.37772
474.138	21.7124
477.031	9.51282
479.923	15.254
482.816	12.9602
485.709	10.2772
488.601	13.3623
491.494	14.2968
494.387	15.2965
497.279	9.89941
500.172	19.9178
503.065	12.6087
505.958	19.5113
508.85	21.0106
511.743	6.80633
514.636	8.47095
517.528	31.9236
520.421	4.255
523.314	16.2598
526.207	10.7271
529.099	0.407684
531.992	35.7285
534.885	11.5001
537.777	20.9954
540.67	16.7975
543.563	14.2347
546.455	13.5939
549.348	17.6398
552.241	10.476
555.134	10.3576
558.026	15.0777
560.919	6.94321
563.812	23.1376
566.704	1.83862
569.597	6.94916
572.49	14.269
575.382	22.2149
578.275	3.75848
581.168	8.30933
584.061	22.1135
586.953	6.90433
589.846	14.6553
592.739	3.91586
595.631	17.9458
598.524	1.69446
601.417	21.5224
604.309	2.26123
607.202	25.1936
610.095	8.71674
612.987	19.4348
615.88	17.021
618.773	5.07867
621.666	0.132233
624.558	9.94504
627.451	16.9636
630.344	4.3295
633.236	14.1137
636.129	5.67624
639.022	23.5071
641.915	14.8794
644.807	4.41315
647.7	19.4636
650.593	15.8824
653.485	18.1748
656.378	17.6075
659.271	24.3185
662.163	2.19861
665.056	18.1301
667.949	13.5175
670.842	8.2012
673.734	3.69812
676.627	22.4213
679.52	18.6795
682.412	17.2312
685.305	16.4349
688.198	5.77481
691.091	19.051
693.983	13.5646
696.876	4.19241
699.769	18.977
702.661	14.492
705.554	20.6174
708.447	7.34369
711.339	14.2246
714.232	6.88733
717.125	4.93155
720.018	17.5017
722.91	11.3257
725.803	8.46146
728.696	20.8876
731.588	19.2056
734.481	8.95721
737.374	4.68671
740.266	16.3017
743.159	18.3889
746.052	12.289
748.944	18.5354
751.837	9.26279
754.73	6.35879
757.623	26.8556
760.515	11.9898
763.408	5.84296
766.301	13.2103
769.193	7.31609
772.086	15.7952
774.979	4.80998
777.871	9.21904
780.764	16.2008
783.657	6.94136
786.55	0.679825
789.442	14.8449
792.335	14.1838
795.228	29.386
798.12	9.2207
801.013	4.27853
803.906	6.06271
806.798	14.2789
809.691	29.8862
812.584	14.0809
815.477	17.5654
818.369	14.1696
821.262	15.6828
824.155	6.90362
827.047	3.00394
829.94	18.653
832.833	8.2205
835.726	1.01941
838.618	18.2079
841.511	25.2321
844.404	8.66644
847.296	15.2131
850.189	27.0129
853.082	11.3906
855.975	5.68263
858.867	25.4075
861.76	19.9057
864.653	6.6654
867.545	20.7449
870.438	27.0645
873.331	8.58008
876.223	15.7348
879.116	12.0129
882.009	26.6739
884.902	14.5915
887.794	15.2176
890.687	18.7405
893.58	8.34526
896.472	6.55246
899.365	10.213
902.258	14.0373
905.15	6.33
908.043	5.375
910.936	26.5887
913.828	7.99788
916.721	26.0086
919.614	15.5952
922.507	19.9038
925.399	3.52823
928.292	11.7921
931.185	20.5535
934.077	11.5431
936.97	7.49705
939.863	13.0048
942.755	14.0111
945.648	10.3528
948.541	24.9106
951.434	21.307
954.326	25.8407
957.219	10.0928
960.112	2.18962
963.004	5.57417
965.897	4.86165
968.79	7.7079
971.683	13.2696
974.575	26.9758
977.468	10.6773
980.361	17.6593
983.253	12.3
986.146	5.27483
989.039	12.1827
991.931	0.463943
994.824	15.8299
997.717	7.4109
1000.61	17.3866
1003.5	24.8354
1006.39	18.4438
1009.29	11.4651
1012.18	3.03529
1015.07	6.21905
1017.97	10.9422
1020.86	0.495224
1023.75	31.9862
1026.64	17.1397
1029.54	15.4388
1032.43	18.2464
1035.32	8.96046
1038.21	20.6977
1041.11	15.1655
1044	5.81265
1046.89	12.538
1049.79	13.1164
1052.68	14.9797
1055.57	9.46463
1058.46	1.71968
1061.36	10.5036
1064.25	26.8826
1067.14	29.1721
1070.03	11.7534
1072.93	21.5139
1075.82	17.8051
1078.71	2.63147
1081.61	5.70381
1084.5	12.073
1087.39	9.76103
1090.28	15.984
1093.18	8.73228
1096.07	4.1158
1098.96	8.30736
1101.85	7.45433
1104.75	1.37323
1107.64	9.42155
1110.53	16.136
1113.42	3.7601
1116.32	12.3961
1119.21	18.1819
1122.1	10.3676
1125	17.7444
1127.89	14.0215
1130.78	17.6778
1133.67	8.33026
1136.57	10.0986
1139.46	24.6161
1142.35	0.919403
1145.24	11.3394
1148.14	11.645
1151.03	7.23947
1153.92	6.68471
1156.82	11.5677
1159.71	6.77403
1162.6	17.502
1165.49	3.75127
1168.39	6.72247
1171.28	0.922775
1174.17	7.03133
1177.06	8.65997
1179.96	9.39435
1182.85	7.6442
1185.74	13.4012
1188.63	8.40491
1191.53	9.70723
1194.42	13.7436
1197.31	16.4502
1200.21	15.5025
1203.1	14.7211
1205.99	19.1899
1208.88	16.1027
1211.78	17.1408
1214.67	11.5118
1217.56	17.8813
1220.45	22.3264
1223.35	10.4784
1226.24	13.2407
1229.13	3.82164
1232.03	16.6325
1234.92	8.73361
1237.81	21.6267
1240.7	17.13
1243.6	3.27316
1246.49	7.85326
1249.38	12.8997
1252.28	3.41972
1255.17	12.0116
1258.06	7.40152
1260.95	14.8274
1263.85	14.2949
1266.74	12.9824
1269.63	7.12843
1272.52	7.63982
1275.42	8.394
1278.31	15.7162
1281.2	18.3645
1284.09	15.0357
1286.99	23.7537
1289.88	1.02896
