Measurement: Raman, 785 nm, unoriented, Raman Data Processed
Mineral: Bergslagite
Rruff sample: R060243
Ideal chemistry: CaBe(As^5+^O_4_)(OH)
Locality: Langban mine dump, Langban, Filipstad, Varmland, Sweden
Source: Michael Scott
Description: Colorless crystalline crust with reddish-brown massive tilasite and black aegirine
Measured chemistry: Ca_1.00_Be_1.00_As_1.00_O_4_(OH) ; Be not analyzed but estimated by stoichiometry
Raman shift (cm-1)	intensity
119.863	0
122.756	440.022
125.649	343.122
128.542	3.7583
131.434	30.415
134.327	230.096
137.22	103.591
140.112	465.143
143.005	1973.1
145.898	4411.43
148.79	6828.4
151.683	7997.99
154.576	7391.36
157.469	5831.72
160.361	4680.02
163.254	4042.95
166.147	3520.73
169.039	2865.09
171.932	2212.12
174.825	1511.74
177.717	1143.94
180.61	1269.34
183.503	1277.54
186.395	1539.6
189.288	2334.14
192.181	3314.65
195.074	3895.54
197.966	4128.07
200.859	4206.33
203.752	4488.65
206.644	4650.37
209.537	4995.48
212.43	5001.45
215.322	4891.53
218.215	4300.17
221.108	3537.57
224.001	2945.94
226.893	2032.87
229.786	1102.39
232.679	460.805
235.571	190.981
238.464	375.262
241.357	443.977
244.25	313.359
247.142	280.144
250.035	1219.55
252.928	2965.89
255.82	5596.65
258.713	9485.1
261.606	13098.6
264.498	16594
267.391	21481.2
270.284	27256.2
273.176	33601.5
276.069	39542.5
278.962	45296.8
281.855	49470.7
284.747	51881.9
287.64	51203
290.533	47672
293.425	41379.5
296.318	34049.1
299.211	26659.5
302.103	20248.1
304.996	15169.2
307.889	10989
310.782	8007.64
313.674	5739.44
316.567	4255.99
319.46	3362.62
322.352	2605.89
325.245	2258.63
328.138	2160.36
331.031	2342.55
333.923	2833.86
336.816	3328.07
339.709	3710.77
342.601	3676.29
345.494	3469.08
348.387	3383.27
351.279	2783.09
354.172	2061.66
357.065	1611.94
359.957	1467.54
362.85	1470.54
365.743	1076.21
368.635	17.7539
371.528	703.559
374.421	732.672
377.314	503.84
380.206	169.918
383.099	1046.37
385.992	2111.77
388.884	2585.49
391.777	2993.41
394.67	2537.22
397.562	1822.36
400.455	1459.15
403.348	1349.18
406.241	1579.52
409.133	1950.87
412.026	2615.64
414.919	3515.24
417.811	4779.53
420.704	5835.8
423.597	7262.41
426.49	8528.08
429.382	9288.68
432.275	10221.6
435.168	10422.7
438.06	10462.7
440.953	10168.6
443.846	9597.85
446.738	8897.76
449.631	7998.54
452.524	7102.98
455.416	6481.43
458.309	5772.45
461.202	5718.73
464.095	5589.92
466.987	5040.59
469.88	3880.34
472.773	2969.47
475.665	2169.28
478.558	2009.82
481.451	1722
484.344	1413.41
487.236	1181.18
490.129	914.539
493.022	793.473
495.914	687.371
498.807	489.215
501.7	295.918
504.592	383.223
507.485	519.863
510.378	296.469
513.27	175.496
516.163	729.66
519.056	1762.27
521.949	2774.8
524.841	3930.35
527.734	5209.6
530.627	6826.18
533.519	8388.08
536.412	9889.85
539.305	11335.7
542.197	12627.5
545.09	13172.1
547.983	12932.7
550.876	12480.5
553.768	12209.9
556.661	11679.3
559.554	11225.9
562.446	10325
565.339	9242.07
568.232	8053.77
571.125	7032.91
574.017	6244.12
576.91	5476.26
579.803	4680.98
582.695	4205.36
585.588	3382.33
588.481	2716.91
591.373	2118.3
594.266	1729.99
597.159	1196.59
600.052	940.717
602.944	685.482
605.837	489.818
608.73	265.631
611.622	66.2812
614.515	119.43
617.408	92.7129
620.3	81.6328
623.193	72.2519
626.086	314.34
628.979	914.799
631.871	1466.73
634.764	2330.42
637.657	3279.91
640.549	4349.37
643.442	5558.69
646.335	6786.23
649.227	7952.94
652.12	8681.81
655.013	9293.74
657.905	9668.62
660.798	9672.17
663.691	9371.77
666.584	8798.43
669.476	8279.59
672.369	7773.21
675.262	7220.43
678.154	6629.56
681.047	5823.98
683.94	5217.63
686.832	4731.85
689.725	4467.8
692.618	4316.8
695.511	4160.98
698.403	4019.47
701.296	3740.98
704.189	3534.35
707.081	3156.53
709.974	2755.81
712.867	2155.57
715.76	1861.14
718.652	1374.66
721.545	1000.01
724.438	696.112
727.33	264.69
730.223	78.2363
733.116	27.1748
736.008	121.089
738.901	241.415
741.794	212.008
744.687	242.049
747.579	183.309
750.472	49.6299
753.365	35.71
756.257	90.6758
759.15	228.285
762.043	253.815
764.935	478.818
767.828	623.323
770.721	945.448
773.614	1173.73
776.506	1314.29
779.399	1642.36
782.292	1882.64
785.184	2084.62
788.077	2184.79
790.97	2194.24
793.862	2148
796.755	1866.48
799.648	1496.4
802.54	1047.5
805.433	794.611
808.326	340.691
811.219	316.897
814.111	267.537
817.004	373.916
819.897	717.242
822.789	1078.87
825.682	1510.29
828.575	2314.8
831.467	2442.53
834.36	1808.17
837.253	1525.21
840.146	2952.93
843.038	5826.26
845.931	10546.4
848.824	17515.6
851.716	17742.6
854.609	8907.81
857.502	3343.82
860.394	1504.34
863.287	1052.85
866.18	1174.29
869.073	1511.3
871.965	2185.45
874.858	2757.17
877.751	1886.68
880.643	896.581
883.536	528
886.429	581.436
889.322	658.819
892.214	802.39
895.107	952.438
898	1196.9
900.892	1341.25
903.785	1503.32
906.678	1670.38
909.57	1766.22
912.463	1954.48
915.356	2059.23
918.248	2119.25
921.141	2286.47
924.034	2536.36
926.927	2958.08
929.819	3359.56
932.712	3997.85
935.605	4690.6
938.497	5520.47
941.39	6253.85
944.283	7184.93
947.175	7766.14
950.068	8370.32
952.961	8757.61
955.854	8675.37
958.746	8207.15
961.639	7657.2
964.532	7260.07
967.424	6818.69
970.317	6451.37
973.21	5536.51
976.102	4317.33
978.995	3010.52
981.888	1831.42
984.78	1233.04
987.673	550.535
990.566	153.057
993.459	844.127
996.351	1149.46
999.244	1605.16
1002.14	1728.54
1005.03	1836.15
1007.92	1717.68
1010.82	1502.87
1013.71	1030.83
1016.6	240.523
1019.49	839.738
1022.39	2264.61
1025.28	4112.1
1028.17	6283.95
1031.06	8845.87
1033.96	12284.9
1036.85	16255.5
1039.74	21460.7
1042.63	27420.2
1045.53	34427.1
1048.42	43109
1051.31	53721.2
1054.2	66046.1
1057.1	81371.9
1059.99	100171
1062.88	121552
1065.78	148341
1068.67	179555
1071.56	216475
1074.45	255370
1077.35	292877
1080.24	323125
1083.13	347745
1086.03	358061
1088.92	361397
1091.81	356313
1094.7	343730
1097.6	326577
1100.49	305670
1103.38	281736
1106.27	255186
1109.17	227224
1112.06	198199
1114.95	170528
1117.85	144610
1120.74	122031
1123.63	102473
1126.52	86343.7
1129.42	72954.4
1132.31	61205.1
1135.2	51697.6
1138.09	43769.6
1140.99	36418
1143.88	29710.8
1146.77	24086.2
1149.66	19454.5
1152.56	14610.2
1155.45	10673.8
1158.34	7357.12
1161.23	4460.58
1164.13	1858.6
1167.02	7.65625
1169.91	1073.24
1172.81	1421.27
1175.7	880.141
1178.59	537.086
1181.48	2302.42
1184.38	4566.24
1187.27	3899.23
1190.16	2962.18
1193.06	1903.9
1195.95	442.773
