Measurement: Raman, 785 nm, unoriented, Raman Data Processed
Mineral: Beryl
Rruff sample: R060943
Ideal chemistry: Be_3_Al_2_Si_6_O_18_
Locality: Xinjiang, China
Source: Lawrence W. Snee
Description: Green hexagonal prisms, variety emerald
Measured chemistry: (Be_2.96_Li_0.04_)_Σ=3_(Al_1.64_Mg_0.21_V^3+^_0.06_Fe^3+^_0.04_Sc^3+^_0.03_Cr^3+^_0.02_)_Σ=2_Si_6.00_O_18_·Na_0.25_
Raman shift (cm-1)	intensity
183.721	0
186.614	628.453
189.506	991.531
192.399	1739.98
195.292	2005.02
198.185	2683.47
201.077	3357.34
203.97	3655.83
206.863	2599.56
209.755	825.594
212.648	507
215.541	908.75
218.434	2106.28
221.326	3323.62
224.219	3659.3
227.112	2868.16
230.004	2012.59
232.897	1881.45
235.79	2410.06
238.682	3429.27
241.575	3598.61
244.468	3230.19
247.36	1334.09
250.253	1238.72
253.146	1377.66
256.038	2161.52
258.931	2087.12
261.824	2553.03
264.717	2187.27
267.609	1167.41
270.502	557.047
273.395	98.6875
276.287	530.766
279.18	1602.22
282.073	2331.66
284.966	2818.03
287.858	2346.27
290.751	1302.69
293.644	42.375
296.536	129.609
299.429	663.453
302.322	1672.72
305.214	2825.33
308.107	3381.08
311	2411.7
313.892	1523.69
316.785	742.891
319.678	1168.06
322.571	2499.17
325.463	3817.62
328.356	3744.47
331.249	2983.34
334.141	1887.11
337.034	762.812
339.927	193.781
342.82	194.531
345.712	287.719
348.605	1423.22
351.498	2081.58
354.39	2186.91
357.283	1338.28
360.176	212.594
363.068	171.578
365.961	391.5
368.854	182.531
371.747	1613.5
374.639	2214.75
377.532	2548.22
380.425	1814.89
383.317	675.547
386.21	43.25
389.103	620.016
391.995	1878.83
394.888	3813.86
397.781	4518.58
400.673	3477.64
403.566	2129.56
406.459	604.188
409.352	344.062
412.244	786.375
415.137	1941.67
418.03	2450.16
420.922	2306.48
423.815	2045.83
426.708	983.594
429.6	763.547
432.493	519.766
435.386	658.234
438.279	1229.3
441.171	1574.17
444.064	1963.06
446.957	2023.58
449.849	1138.14
452.742	928.547
455.635	392.531
458.527	251.25
461.42	365.828
464.313	461.766
467.205	1032.8
470.098	1117.16
472.991	1084.94
475.884	405.922
478.776	1.6875
481.669	160.484
484.562	134.797
487.454	1119.75
490.347	1595.42
493.24	1733.48
496.132	1411.72
499.025	533.656
501.918	333.453
504.811	210.859
507.703	695.547
510.596	1029.83
513.489	1451.88
516.381	1423.45
519.274	1836.5
522.167	1685.48
525.059	1603.09
527.952	1277.7
530.845	1436.11
533.737	1460.91
536.63	1609.17
539.523	1674.83
542.416	1003.67
545.308	781.344
548.201	496.016
551.094	565.297
553.986	482.156
556.879	695.516
559.772	1126.05
562.665	1127
565.557	1052.83
568.45	361.516
571.343	43.0469
574.235	78.1562
577.128	147.203
580.021	107.188
582.913	588.781
585.806	725.141
588.699	336.531
591.592	280.469
594.484	159.031
597.377	271.391
600.27	407.547
603.162	797.234
606.055	845.469
608.948	1102.09
611.841	1233.25
614.733	1168.09
617.626	1004.59
620.519	1343.72
623.411	1444.77
626.304	1576.09
629.197	1063.53
632.089	1151.23
634.982	921.25
637.875	783.234
640.767	1008.09
643.66	917.789
646.553	469.703
649.446	292.656
652.338	377.273
655.231	634.383
658.124	763.195
661.016	426.547
663.909	405.234
666.802	10.9219
669.694	211.242
672.587	803.266
675.48	1679.57
678.372	2920.67
681.265	4083.34
684.158	6307.1
687.051	6625.63
689.943	3671.66
692.836	2146.15
695.729	1797.88
698.621	1379.45
701.514	1144.19
704.407	713.922
707.299	339.664
710.192	10.2969
713.085	147.633
715.978	389.234
718.87	554.898
721.763	530.055
724.656	361.914
727.548	224.359
730.441	67.3359
733.334	112.406
736.226	257.688
739.119	5.32812
742.012	188.375
744.904	311.711
747.797	429.469
750.69	399.836
753.583	482.094
756.475	41.7266
759.368	224.602
762.261	64.9688
765.153	552.461
768.046	760.375
770.939	762.086
773.832	866.008
776.724	516.297
779.617	307.414
782.51	431.688
785.402	693.898
788.295	1111.73
791.188	954.406
794.08	641.195
796.973	933.938
799.866	907.289
802.759	909.305
805.651	1099.41
808.544	1175.17
811.437	1350.96
814.329	1469.21
817.222	1308.85
820.115	535.594
823.007	860.648
825.9	524.969
828.793	715.414
831.686	579.375
834.578	391.242
837.471	63.1797
840.364	61.8672
843.256	142.828
846.149	265.078
849.042	91.75
851.934	340.375
854.827	111.102
857.72	114.797
860.612	368
863.505	24.3516
866.398	144.25
869.291	34.2422
872.183	71.9219
875.076	8.23438
877.969	367.617
880.861	230.664
883.754	289.406
886.647	305.539
889.539	523.203
892.432	424.086
895.325	442.703
898.218	422.242
901.11	347.992
904.003	410.953
906.896	648.547
909.788	605.984
912.681	687.703
915.574	252.82
918.466	353.219
921.359	256.836
924.252	299.406
927.145	363.672
930.037	462.188
932.93	658.969
935.823	586.438
938.715	157.82
941.608	286.828
944.501	203.844
947.393	9.83594
950.286	122.484
953.179	432.352
956.072	296.273
958.964	174.922
961.857	288.406
964.75	307.898
967.642	304
970.535	160.953
973.428	43.5
976.32	369.727
979.213	73.7734
982.106	340.688
984.999	235.328
987.891	144.062
990.784	70.5781
993.677	22.0078
996.569	151.609
999.462	293.18
1002.36	603.945
1005.25	522.641
1008.14	394.367
1011.03	231.012
1013.93	540.559
1016.82	182.977
1019.71	104.738
1022.6	148.332
1025.5	136.356
1028.39	143.926
1031.28	130.531
1034.17	51.1367
1037.07	217.828
1039.96	32.2422
1042.85	265.535
1045.74	379.957
1048.64	167.273
1051.53	456.953
1054.42	1078.77
1057.32	1349.76
1060.21	2189.39
1063.1	2814.02
1065.99	3417.52
1068.89	3515.98
1071.78	3197.84
1074.67	2572.41
1077.57	1906.52
1080.46	1342.65
1083.35	851.562
1086.24	521.793
1089.14	393.152
1092.03	432.426
1094.92	446.473
1097.81	232.926
1100.71	216.289
1103.6	40.7422
1106.49	91.8945
1109.38	144.711
1112.28	137.242
1115.17	197.394
1118.06	108.297
1120.95	107.441
1123.85	382.258
1126.74	321.82
1129.63	415.82
1132.53	214.648
1135.42	258.285
1138.31	424.086
1141.2	19.4727
1144.1	188.875
1146.99	199.219
1149.88	38.9141
1152.78	5.07812
1155.67	72.0039
1158.56	126.32
1161.45	102.898
1164.35	194.352
1167.24	212.805
1170.13	265.703
1173.02	142.086
1175.92	224.113
1178.81	108.535
1181.7	47.9023
1184.6	135.508
1187.49	224.688
1190.38	33.9961
1193.27	166.91
1196.17	279.129
1199.06	241.106
1201.95	267.434
1204.84	133.672
1207.74	1.04297
1210.63	37.6328
1213.52	117.031
1216.41	306.715
1219.31	369.953
1222.2	342.664
1225.09	321.481
1227.98	241.086
1230.88	108.914
1233.77	239.012
1236.66	260.035
1239.56	308.582
1242.45	297.305
1245.34	232.723
1248.23	150.648
1251.13	121.09
1254.02	17.832
1256.91	20.6992
1259.81	89.0469
1262.7	243.949
1265.59	112.981
1268.48	61.1172
1271.38	21.5742
