Measurement: Raman, 785 nm, unoriented, Raman Data Processed
Mineral: Beryl
Rruff sample: R060944
Ideal chemistry: Be_3_Al_2_Si_6_O_18_
Locality: Habachtal, Salzburg, Austria
Source: Lawrence W. Snee
Description: Green hexagonal prisms in a muscovite schist, variety emerald. Note that there are micro inclusions of actinolite. The Raman signal is a mixture of the two phases.
Measured chemistry: Be_3.00_(Al_1.59_Mg_0.33_Fe^3+^_0.04_Cr^3+^_0.04_)_Σ=2_Si_6.00_O_18_·Na_0.33_ ; bright inclusions are actinolite
Raman shift (cm-1)	intensity
187.096	0
189.989	5.44287
192.881	69.7417
195.774	31.9849
198.667	82.9619
201.559	115.384
204.452	58.4482
207.345	68.6773
210.238	23.0679
213.13	28.6899
216.023	55.2861
218.916	65.4702
221.808	109.33
224.701	111.033
227.594	68.6289
230.486	64.2319
233.379	98.6352
236.272	101.81
239.164	136.401
242.057	119.265
244.95	67.3042
247.843	69.1309
250.735	77.0439
253.628	78.458
256.521	64.8735
259.413	101.318
262.306	63.479
265.199	112.098
268.091	44.9053
270.984	53.0518
273.877	18.1934
276.769	62.9888
279.662	121.924
282.555	102.393
285.448	129.626
288.34	75.0884
291.233	61.0029
294.126	1.38525
297.018	12.6221
299.911	45.3516
302.804	113.481
305.697	87.7817
308.589	120.458
311.482	68.2129
314.375	69.5386
317.267	17.5908
320.16	9.34375
323.053	81.7334
325.945	107.309
328.838	97.4502
331.731	97.5386
334.623	50.0283
337.516	29.0239
340.409	13.188
343.302	12.2993
346.194	41.3179
349.087	45.4922
351.98	81.022
354.872	41.7881
357.765	60.8301
360.658	0.989746
363.55	26.0918
366.443	1.12549
369.336	16.791
372.229	87.6728
375.121	135.393
378.014	85.0801
380.907	49.4722
383.799	20.481
386.692	42.5752
389.585	61.1328
392.477	113.004
395.37	58.7685
398.263	147.609
401.156	116.223
404.048	21.7915
406.941	48.9761
409.834	25.8433
412.726	44.2554
415.619	105.746
418.512	85.3066
421.404	64.0181
424.297	108.719
427.19	53.0381
430.082	87.4072
432.975	76.5474
435.868	31.2666
438.761	86.2554
441.653	72.7847
444.546	72.0288
447.439	100.02
450.331	59.3892
453.224	21.4336
456.117	54.8184
459.01	30.478
461.902	74.335
464.795	93.3247
467.688	48.6851
470.58	69.9341
473.473	68.2866
476.366	50.456
479.258	18.5395
482.151	15.9316
485.044	33.9653
487.937	62.166
490.829	37.4766
493.722	95.8335
496.615	1.74365
499.507	39.3984
502.4	72.459
505.293	63.1782
508.185	80.9365
511.078	59.3574
513.971	46.1548
516.864	149.735
519.756	65.395
522.649	58.9927
525.542	56.669
528.434	47.832
531.327	77.2124
534.22	44.2822
537.112	81.811
540.005	66.875
542.898	60.3989
545.79	45.4346
548.683	25.9204
551.576	31.2593
554.469	31.7783
557.361	7.75537
560.254	66.5396
563.147	23.4653
566.039	58.1543
568.932	35.0254
571.825	35.481
574.717	47.0674
577.61	41.7471
580.503	72.1397
583.395	29.0669
586.288	43.6167
589.181	42.9395
592.074	30.9609
594.966	5.75928
597.859	13.625
600.752	15.8584
603.644	46.7437
606.537	71.6118
609.43	73.5786
612.322	15.3281
615.215	51.3169
618.108	50.0757
621.001	47.5615
623.893	78.9092
626.786	35.5986
629.679	29.3218
632.571	53.7231
635.464	67.6719
638.357	1.31689
641.25	48.584
644.142	40.5425
647.035	69.5669
649.928	58.9807
652.82	44.1216
655.713	57.7717
658.606	55.2102
661.498	35.3352
664.391	13.4104
667.284	72.4775
670.177	63.8081
673.069	42.9802
675.962	58.4258
678.855	53.6089
681.747	92.6042
684.64	62.1982
687.533	87.5859
690.425	49.2727
693.318	71.2522
696.211	82.2942
699.104	38.7483
701.996	34.5693
704.889	14.7222
707.782	7.76733
710.674	19.6445
713.567	23.4827
716.46	15.8752
719.352	64.6509
722.245	39.2192
725.138	44.5637
728.03	35.9204
730.923	21.9929
733.816	39.9961
736.709	21.991
739.601	5.2915
742.494	16.2141
745.387	44.0874
748.279	66.2261
751.172	16.1245
754.065	28.4426
756.957	36.0967
759.85	39.9546
762.743	16.8716
765.635	24.5769
768.528	22.4155
771.421	12.3193
774.314	82.9014
777.206	43.5386
780.099	25.1768
782.992	54.844
785.884	16.7212
788.777	23.6919
791.67	43.0002
794.562	67.6411
797.455	35.4387
800.348	17.0078
803.241	3.93457
806.133	15.2056
809.026	8.20703
811.919	50.2742
814.811	31.2602
817.704	42.0779
820.597	18.6267
823.49	28.9524
826.382	34.9512
829.275	39.5029
832.168	21.9226
835.06	2.4646
837.953	22.6811
840.846	14.5151
843.738	25.325
846.631	35.3296
849.524	50.283
852.416	40.5652
855.309	19.4087
858.202	45.0562
861.095	2.58545
863.987	31.064
866.88	47.1399
869.773	4.78613
872.665	10.9055
875.558	21.5496
878.451	37.2082
881.343	21.7522
884.236	28.3377
887.129	1.51147
890.021	22.3464
892.914	57.0979
895.807	23.467
898.7	8.0498
901.592	25.2598
904.485	42.874
907.378	47.6528
910.27	45.7185
913.163	22.9709
916.056	14.2129
918.948	50.2075
921.841	37.5425
924.734	33.7036
927.627	41.7275
930.519	32.1255
933.412	13.4627
936.305	23.1653
939.197	39.2974
942.09	45.7148
944.983	34.0942
947.875	29.7842
950.768	24.1816
953.661	15.7415
956.554	40.5371
959.446	16.1338
962.339	54.2163
965.232	12.5737
968.124	36.1457
971.017	26.644
973.91	32.8176
976.803	27.968
979.695	4.56421
982.588	22.3325
985.481	25.5696
988.373	3.23218
991.266	10.8433
994.159	12.5347
997.051	13.9194
999.944	44.2537
1002.84	33.6621
1005.73	7.06152
1008.62	54.9639
1011.51	29.2727
1014.41	51.4233
1017.3	57.1707
1020.19	16.4854
1023.09	2.48926
1025.98	15.3267
1028.87	5.00342
1031.76	60.5786
1034.66	26.9553
1037.55	21.6177
1040.44	21.2114
1043.34	26.2642
1046.23	10.0312
1049.12	71.4792
1052.01	54.2727
1054.9	34.8623
1057.8	57.6735
1060.69	38.277
1063.58	31.5443
1066.48	32.4282
1069.37	48.7515
1072.26	50.6917
1075.15	35.5587
1078.05	25.7231
1080.94	25.7377
1083.83	30.8678
1086.72	13.2697
1089.62	7.20349
1092.51	27.0238
1095.4	13.8181
1098.3	34.4236
1101.19	19.7629
1104.08	39.0821
1106.97	0.161255
1109.87	35.678
1112.76	23.7388
1115.65	38.9554
1118.55	31.3588
1121.44	43.4477
1124.33	24.1493
1127.22	0.673706
1130.12	4.1582
1133.01	28.3678
1135.9	32.1713
1138.79	18.7368
1141.69	21.29
1144.58	20.2181
1147.47	14.9961
1150.36	18.3551
1153.26	9.0979
1156.15	18.3824
1159.04	56.8018
1161.93	25.4659
1164.83	12.4788
1167.72	24.3943
1170.61	27.9644
1173.51	5.44397
1176.4	3.87366
1179.29	4.39856
1182.18	2.9386
1185.08	6.47961
1187.97	20.761
1190.86	9.79126
1193.76	3.02478
1196.65	7.46228
1199.54	24.2677
1202.43	19.1117
1205.33	10.767
1208.22	0.86499
1211.11	27.4586
1214	9.87231
1216.9	34.6952
1219.79	1.68506
1222.68	22.7966
1225.58	20.5551
1228.47	33.3334
1231.36	20.9114
1234.25	16.0337
1237.14	8.64038
1240.04	20.6593
1242.93	11.6316
1245.82	22.8433
1248.72	14.3269
1251.61	2.21545
1254.5	7.83887
1257.39	31.9625
1260.29	13.1621
1263.18	0.097778
1266.07	15.4485
