Measurement: Raman, 780 nm, unoriented, Raman Data RAW
Mineral: Beryl
Rruff sample: R110115
Ideal chemistry: Be_3_Al_2_Si_6_O_18_
Locality: Synthetic
Source: Gemological Institute of America
Description: A cut, green (0.48ct) emerald gemstone, hydrothermally grown.
Raman shift (cm-1)	intensity
110.406	38848.1
113.781	38215.9
117.156	37844.9
120.531	37515
123.905	37208.1
127.28	36917.5
130.655	36633.8
134.03	36604.1
137.405	36165.2
140.779	36002.7
144.154	35810.7
147.529	35498.9
150.904	35259.6
154.279	34994.1
157.654	34880.8
161.028	34665.2
164.403	34548.5
167.778	34286.9
171.153	33965.6
174.528	33824.1
177.902	33646.9
181.277	33495
184.652	33197.4
188.027	33092.6
191.402	32945.2
194.776	32735.9
198.151	32521.5
201.526	32271.5
204.901	32222.3
208.276	32085.4
211.651	31807
215.025	31441.6
218.4	31390.8
221.775	31265.1
225.15	30958
228.525	30854
231.899	30685.9
235.274	30640.5
238.649	30331.7
242.024	30185.2
245.399	30044.5
248.774	29815.8
252.148	29576.6
255.523	29279.4
258.898	29315.7
262.273	29226.6
265.648	28938.1
269.022	28721.9
272.397	28734.6
275.772	28469
279.147	28290.2
282.522	28172.4
285.897	27922.8
289.271	27778.2
292.646	27580.5
296.021	27421.8
299.396	27129.8
302.771	27187
306.145	26991
309.52	26890.2
312.895	26669.6
316.27	26500
319.645	26313
323.019	26258.8
326.394	25984.3
329.769	25962
333.144	25713.1
336.519	25549.8
339.894	25311.3
343.268	25348.8
346.643	25215.3
350.018	24990.7
353.393	24933.8
356.768	24840.9
360.142	24614
363.517	24350.9
366.892	24264.2
370.267	24303.6
373.642	24037.5
377.017	23893.4
380.391	23771.7
383.766	23692.8
387.141	23585.1
390.516	23400.4
393.891	23352.7
397.265	23276
400.64	23167.4
404.015	23020.3
407.39	22876.2
410.765	22826
414.14	22838
417.514	22602.7
420.889	22527.1
424.264	22385.2
427.639	22323.9
431.014	22235.7
434.389	22139.2
437.763	22071.1
441.138	22053.5
444.513	21864.4
447.888	21649.4
451.263	21689.1
454.637	21500
458.012	21393.4
461.387	21353.5
464.762	21279.8
468.137	21226.2
471.512	21163.4
474.886	21147.6
478.261	20859
481.636	20826.3
485.011	20737
488.386	20605.1
491.76	20534
495.135	20433.3
498.51	20352.8
501.885	20333.4
505.26	20170.5
508.635	20046.3
512.009	19950.4
515.384	19877.5
518.759	19740.4
522.134	19742.4
525.509	19597.9
528.883	19451.9
532.258	19365
535.633	19403.1
539.008	19177.7
542.383	19135.6
545.757	19018.4
549.132	18883.3
552.507	18867.2
555.882	18701.5
559.257	18619.8
562.631	18517.2
566.006	18507.6
569.381	18399.2
572.756	18322.3
576.131	18197.4
579.506	18071.4
582.88	18102.2
586.255	18016.5
589.63	17811.3
593.005	17825.8
596.38	17699
599.755	17651.3
603.129	17465.1
606.504	17521.9
609.879	17386
613.254	17252.8
616.629	17157
620.003	17163.4
623.378	17002.8
626.753	16954.6
630.128	16890.8
633.503	16801.6
636.878	16713.5
640.252	16666.6
643.627	16495.4
647.002	16476.5
650.377	16383.6
653.752	16288.6
657.126	16192.3
660.501	16139.3
663.876	16028
667.251	15964.3
670.626	15794.4
674	15755.5
677.375	15796.2
680.75	15729.4
684.125	15609.9
687.5	15601.1
690.875	15393.3
694.249	15309.3
697.624	15254
700.999	15179.1
704.374	15198.2
707.749	15080
711.124	15029.2
714.498	14924.2
717.873	14961.3
721.248	14878.7
724.623	14854.6
727.998	14756.5
731.372	14802.4
734.747	14663.9
738.122	14545.8
741.497	14459.8
744.872	14518.8
748.246	14401.7
751.621	14345.2
754.996	14268.5
758.371	14251.8
761.746	14256.4
765.12	14172
768.495	14133.9
771.87	13919.1
775.245	13983.5
778.62	13976.2
781.995	13916.4
785.369	13801.5
788.744	13775.1
792.119	13777
795.494	13736.3
798.869	13601.8
802.244	13676.9
805.618	13591.7
808.993	13625.5
812.368	13500.6
815.743	13412
819.118	13370.6
822.492	13416
825.867	13316.6
829.242	13261.3
832.617	13205.3
835.992	13190.9
839.366	13194.3
842.741	13055.5
846.116	13078.5
849.491	13046.3
852.866	13020.1
856.241	12958
859.615	12872.7
862.99	12751.1
866.365	12758.5
869.74	12665.2
873.115	12692.5
876.49	12567.5
879.864	12538.1
883.239	12438.8
886.614	12458.1
889.989	12469
893.364	12350.1
896.738	12324.1
900.113	12227.7
903.488	12038.6
906.863	12131.4
910.238	12001.3
913.612	12048.8
916.987	11972.5
920.362	11917.8
923.737	11852.5
927.112	11804.6
930.487	11809
933.861	11729.6
937.236	11682.1
940.611	11589.8
943.986	11616
947.361	11513.2
950.736	11434.3
954.11	11448.4
957.485	11425.4
960.86	11379.5
964.235	11369.6
967.61	11256.3
970.984	11201.3
974.359	11201.4
977.734	11079.9
981.109	11074.6
984.484	11018.5
987.859	11077.8
991.233	11035.3
994.608	10885.6
997.983	10867.8
1001.36	10814.4
1004.73	10760.7
1008.11	10764.8
1011.48	10776.6
1014.86	10700
1018.23	10708.6
1021.61	10662.9
1024.98	10588.8
1028.36	10546.3
1031.73	10566.1
1035.11	10596
1038.48	10458.9
1041.86	10399.6
1045.23	10393.8
1048.61	10373.1
1051.98	10320.3
1055.36	10326.3
1058.73	10236.1
1062.1	10202.2
1065.48	10120.1
1068.85	10189.3
1072.23	10101.5
1075.6	10095.8
1078.98	9994.17
1082.35	9969.95
1085.73	9937.54
1089.1	9911.91
1092.48	9889.23
1095.85	9875.63
1099.23	9814.14
1102.6	9786.61
1105.98	9736.75
1109.35	9764.98
1112.73	9687.71
1116.1	9661.84
1119.48	9563.71
1122.85	9579.03
1126.23	9555.68
1129.6	9604.09
1132.98	9572.67
1136.35	9527.41
1139.72	9495.81
1143.1	9380.3
1146.47	9450.07
1149.85	9381.47
1153.22	9374.41
1156.6	9330.62
1159.97	9306.18
1163.35	9303.96
1166.72	9279.63
1170.1	9208.86
1173.47	9197.78
1176.85	9163.91
1180.22	9180.32
1183.6	9179.65
1186.97	9057.58
1190.35	9076.99
1193.72	9004.43
1197.1	8996.54
1200.47	8965.26
1203.85	9005.34
1207.22	8948.6
1210.6	8866.45
1213.97	8831.73
1217.35	8777.58
1220.72	8752.81
1224.1	8755.06
1227.47	8773.94
1230.85	8702.92
1234.22	8618.03
1237.6	8589.31
1240.97	8515.84
1244.34	8496.45
1247.72	8563.77
1251.09	8483.48
1254.47	8546.14
1257.84	8447.53
1261.22	8411.39
1264.59	8426.15
1267.97	8405.27
1271.34	8338.28
1274.72	8327.71
1278.09	8359.16
1281.47	8362.89
1284.84	8381.23
