Measurement: Raman, 780 nm, unoriented, Raman Data RAW
Mineral: Beryl
Rruff sample: R110113
Ideal chemistry: Be_3_Al_2_Si_6_O_18_
Locality: Synthetic
Source: Gemological Institute of America
Description: A cut, green (0.50ct) emerald gemstone, flux grown.
Raman shift (cm-1)	intensity
97.3889	288379
100.764	287637
104.138	286783
107.513	287316
110.888	288160
114.263	288224
117.638	287515
121.013	286276
124.388	285098
127.762	284265
131.137	283545
134.512	282697
137.887	282267
141.262	281816
144.636	281582
148.011	281073
151.386	280514
154.761	279755
158.136	279134
161.51	278125
164.885	277343
168.26	276508
171.635	275318
175.01	274445
178.385	273745
181.759	272662
185.134	271380
188.509	270406
191.884	269932
195.259	269046
198.633	268297
202.008	266862
205.383	266113
208.758	265531
212.133	264838
215.507	263927
218.882	263074
222.257	262394
225.632	261279
229.007	260223
232.382	259389
235.756	258657
239.131	257646
242.506	256578
245.881	255502
249.256	254830
252.631	253810
256.005	252947
259.38	252344
262.755	251784
266.13	251118
269.505	250531
272.879	249632
276.254	248974
279.629	248390
283.004	248098
286.379	246996
289.753	246110
293.128	245458
296.503	244649
299.878	244014
303.253	243044
306.628	242189
310.002	241636
313.377	241005
316.752	240121
320.127	239302
323.502	238309
326.877	237347
330.251	236790
333.626	235989
337.001	235652
340.376	234941
343.751	234389
347.125	233757
350.5	233124
353.875	232217
357.25	231882
360.625	230814
364	230070
367.374	229228
370.749	228708
374.124	227695
377.499	226911
380.874	226210
384.248	225474
387.623	224490
390.998	223824
394.373	222822
397.748	222092
401.123	221262
404.497	220641
407.872	219663
411.247	219001
414.622	218278
417.997	217545
421.371	217198
424.746	216282
428.121	215418
431.496	215038
434.871	214064
438.245	213413
441.62	212378
444.995	211984
448.37	211180
451.745	210333
455.12	209460
458.494	208777
461.869	208087
465.244	207173
468.619	206405
471.994	205530
475.368	204632
478.743	203637
482.118	202662
485.493	201680
488.868	201010
492.243	200002
495.617	199080
498.992	198319
502.367	197289
505.742	196604
509.117	195763
512.491	195096
515.866	194107
519.241	193070
522.616	192170
525.991	191344
529.365	190427
532.74	189801
536.115	189046
539.49	188298
542.865	187555
546.24	186607
549.614	185999
552.989	185480
556.364	184790
559.739	184062
563.114	183309
566.489	182792
569.863	182186
573.238	181159
576.613	180708
579.988	180158
583.362	179433
586.737	179117
590.112	178520
593.487	178001
596.862	177386
600.237	176690
603.611	176258
606.986	175671
610.361	175307
613.736	174731
617.111	174173
620.486	173450
623.86	173086
627.235	172757
630.61	172078
633.985	171542
637.36	171104
640.735	170646
644.109	169871
647.484	169639
650.859	168960
654.234	168421
657.609	167874
660.983	167050
664.358	166375
667.733	166229
671.108	165489
674.483	165002
677.857	164459
681.232	164116
684.607	163522
687.982	162977
691.357	162064
694.732	161454
698.106	160832
701.481	160393
704.856	159956
708.231	159652
711.606	159104
714.981	158820
718.355	158414
721.73	157893
725.105	157529
728.48	157171
731.855	156910
735.229	156192
738.604	155617
741.979	155064
745.354	154750
748.729	154351
752.104	153712
755.478	153318
758.853	152906
762.228	152338
765.603	151612
768.977	150844
772.352	150563
775.727	150324
779.102	149966
782.477	149561
785.852	149083
789.226	148746
792.601	148056
795.976	147913
799.351	147346
802.726	146555
806.101	146548
809.475	145978
812.85	145293
816.225	145211
819.6	144866
822.975	144429
826.349	143938
829.724	143407
833.099	143069
836.474	142781
839.849	142290
843.223	141608
846.598	141217
849.973	140658
853.348	140279
856.723	139917
860.098	139556
863.472	139084
866.847	138482
870.222	138000
873.597	137805
876.972	137166
880.346	136720
883.721	136319
887.096	135791
890.471	135234
893.846	134885
897.221	134153
900.595	133748
903.97	133548
907.345	133311
910.72	132914
914.095	132533
917.47	132161
920.844	131863
924.219	131323
927.594	130896
930.969	130737
934.344	130440
937.718	130077
941.093	129508
944.468	129394
947.843	128926
951.218	128776
954.592	128457
957.967	127914
961.342	127591
964.717	126934
968.092	126853
971.467	126313
974.841	126146
978.216	125747
981.591	125453
984.966	125195
988.341	125025
991.716	124596
995.09	124510
998.465	124189
1001.84	123764
1005.22	123447
1008.59	123370
1011.96	123120
1015.34	122700
1018.71	122392
1022.09	121981
1025.46	121838
1028.84	121356
1032.21	121234
1035.59	121014
1038.96	120718
1042.34	120102
1045.71	119596
1049.09	119310
1052.46	119033
1055.84	118662
1059.21	118354
1062.59	118252
1065.96	118054
1069.34	117728
1072.71	117359
1076.09	117088
1079.46	116393
1082.84	115966
1086.21	115756
1089.59	115459
1092.96	115152
1096.34	114611
1099.71	114263
1103.08	113959
1106.46	113459
1109.83	112978
1113.21	112672
1116.58	112186
1119.96	111767
1123.33	111655
1126.71	111205
1130.08	111058
1133.46	111121
1136.83	110807
1140.21	110487
1143.58	110257
1146.96	109925
1150.33	109758
1153.71	109360
1157.08	109126
1160.46	108885
1163.83	108784
1167.21	108382
1170.58	108127
1173.96	107960
1177.33	107468
1180.7	107492
1184.08	107134
1187.45	106785
1190.83	106600
1194.2	106304
1197.58	105949
1200.95	105456
1204.33	105218
1207.7	104914
1211.08	104748
1214.45	104385
1217.83	104193
1221.2	103700
1224.58	103234
1227.95	103162
1231.33	102926
1234.7	102652
1238.08	102107
1241.45	101717
1244.83	101398
1248.2	101322
1251.58	101205
1254.95	100697
1258.33	100690
1261.7	100780
1265.08	100617
1268.45	100610
1271.83	100309
1275.2	100067
1278.58	100122
1281.95	100094
1285.33	99907.3
