Measurement: Raman, 785 nm, unoriented, Raman Data Processed
Mineral: Beryl
Rruff sample: R060942
Ideal chemistry: Be_3_Al_2_Si_6_O_18_
Locality: Mingore mine, Swat Valley, Pakistan
Source: Lawrence W. Snee
Description: Green hexagonal prisms, variety emerald
Measured chemistry: (Be_2.94_Li_0.06_)_Σ=3_(Al_1.55_Mg_0.37_Fe^3+^_0.06_Cr^3+^_0.02_)_Σ=2_Si_6.00_O_18_·Na_0.42_; Be and Li not measured but estimated by stoichiometry
Raman shift (cm-1)	intensity
183.721	0
186.614	3.36231
189.506	38.0776
192.399	16.0415
195.292	37.9092
198.185	90.0371
201.077	108.369
203.97	113.868
206.863	77.4639
209.755	52.9346
212.648	56.3877
215.541	0.730469
218.433	14.8506
221.326	90.9194
224.219	108.416
227.112	81.5478
230.004	35.1519
232.897	4.79932
235.79	99.1675
238.682	127.707
241.575	121.116
244.468	108.348
247.36	25.5664
250.253	73.542
253.146	65.8047
256.038	105.691
258.931	78.3359
261.824	208.511
264.717	61.5234
267.609	83.5142
270.502	4.05225
273.395	95.9443
276.287	4.42188
279.18	42.6138
282.073	60.2085
284.966	101.295
287.858	67.6899
290.751	99.0654
293.644	21.3189
296.536	11.2129
299.429	27.0171
302.322	103.199
305.214	96.3779
308.107	87.6279
311	121.914
313.892	76.8569
316.785	20.25
319.678	23.3413
322.571	39.8457
325.463	112.075
328.356	169.672
331.249	87.4189
334.141	32.0483
337.034	60.6792
339.927	47.8223
342.82	15.3398
345.712	42.2222
348.605	79.8325
351.498	123.309
354.39	71.4941
357.283	42.6069
360.176	17.8774
363.068	23.2495
365.961	15.709
368.854	37.8315
371.747	115.074
374.639	36.5117
377.532	92.3711
380.425	146.236
383.317	41.0742
386.21	11.9746
389.103	23.4541
391.995	62.3935
394.888	84.2773
397.781	160.928
400.673	117.48
403.566	81.6006
406.459	9.19824
409.351	2.58838
412.244	14.6191
415.137	31.2739
418.03	78.2778
420.922	56.5981
423.815	58.332
426.708	78.8135
429.6	102.629
432.493	70.3516
435.386	55.7598
438.279	85.0996
441.171	47.8091
444.064	133.382
446.957	99.6572
449.849	60.9419
452.742	22.852
455.635	13.0317
458.527	10.5469
461.42	85.3506
464.313	50.2656
467.205	49.9785
470.098	78.9858
472.991	65.2656
475.884	7.25977
478.776	21.6445
481.669	19.2017
484.562	24.7798
487.454	27.0869
490.347	60.1841
493.24	53.7617
496.132	89.0977
499.025	8.92676
501.918	57.1079
504.811	49.0264
507.703	35.9863
510.596	67.0093
513.489	35.5234
516.381	78.4898
519.274	105.478
522.167	86.3101
525.059	63.8755
527.952	34.2241
530.845	80.832
533.737	90.8272
536.63	101.406
539.523	132.582
542.416	39.8242
545.308	58.0185
548.201	35.581
551.094	58.0205
553.986	51.2451
556.879	57.4228
559.772	108.649
562.665	67.0986
565.557	63.0254
568.45	6.17578
571.343	8.64697
574.235	17.0508
577.128	46.3042
580.021	29.1577
582.913	7.75684
585.806	44.4678
588.699	42.0776
591.591	53.9419
594.484	11.8892
597.377	36.2988
600.27	54.7739
603.162	25.25
606.055	7.76904
608.948	12.835
611.84	85.3237
614.733	66.1724
617.626	81.5762
620.519	54.9468
623.411	107.105
626.304	130.341
629.197	72.2461
632.089	57.1728
634.982	75.5615
637.875	68.6807
640.767	53.7978
643.66	54.124
646.553	14.0361
649.446	28.0112
652.338	74.3125
655.231	10.6543
658.124	14.1435
661.016	45.873
663.909	8.39355
666.802	41.2051
669.694	65.1226
672.587	52.5332
675.48	48.9692
678.372	86.6943
681.265	108.811
684.158	227.539
687.051	186.158
689.943	78.7148
692.836	40.5708
695.729	61.439
698.621	99.9639
701.514	28.3994
704.407	31.6919
707.299	26.2163
710.192	14.3901
713.085	23.6191
715.977	33.9883
718.87	9.32422
721.763	38.6694
724.656	22.1997
727.548	54.7129
730.441	43.8911
733.334	7.26367
736.226	50.686
739.119	53.7817
742.012	61.6484
744.904	50.9194
747.797	67.2837
750.69	84.4961
753.583	79.6543
756.475	47.3203
759.368	18.4458
762.261	49.648
765.153	42.4116
768.046	5.47217
770.939	6.11475
773.832	60.813
776.724	30.6274
779.617	49.3486
782.51	22.5747
785.402	29.4028
788.295	63.9248
791.188	83.8174
794.08	54.3906
796.973	71.6484
799.866	4.50781
802.759	46.0449
805.651	21.0557
808.544	51.521
811.437	36.4756
814.329	98.707
817.222	76.7349
820.115	39.3359
823.007	91.8994
825.9	64.7651
828.793	65.0928
831.686	45.7329
834.578	31.2515
837.471	7.10449
840.364	9.91553
843.256	6.39356
846.149	41.9946
849.042	43.645
851.934	28.354
854.827	22.5708
857.72	18.6548
860.612	28.7173
863.505	16.977
866.398	1.22119
869.29	9.08398
872.183	25.6816
875.076	14.5405
877.969	86.0562
880.861	43.7266
883.754	47.1499
886.647	23.3047
889.539	63.6846
892.432	34.6626
895.325	26.043
898.217	36.0503
901.11	61.2056
904.003	52.6338
906.896	55.5723
909.788	69.0737
912.681	53.4517
915.574	47.5474
918.466	80.4453
921.359	51.5474
924.252	86.5874
927.144	51.8086
930.037	56.0923
932.93	62.5273
935.823	64.4961
938.715	3.82764
941.608	31.6377
944.501	44.9141
947.393	11.5571
950.286	50.4668
953.179	57.7602
956.072	14.2192
958.964	30.1489
961.857	34.3237
964.75	51.333
967.642	89.8023
970.535	43.6641
973.428	49.3555
976.32	32.2119
979.213	51.2676
982.106	42.4902
984.999	37.2476
987.891	18.3921
990.784	1.66113
993.677	1.69531
996.569	25.8823
999.462	33.9082
1002.36	94.3467
1005.25	37.596
1008.14	68.6436
1011.03	55.6731
1013.92	28.0356
1016.82	73.3901
1019.71	63.9231
1022.6	48.698
1025.5	0.603027
1028.39	6.24951
1031.28	26.3765
1034.17	26.5122
1037.07	31.6035
1039.96	57.5066
1042.85	36.425
1045.74	36.51
1048.64	10.8335
1051.53	11.3772
1054.42	7.0481
1057.32	30.3162
1060.21	59.4414
1063.1	31.9229
1065.99	86.6602
1068.89	66.7222
1071.78	100.907
1074.67	85.6943
1077.57	48.53
1080.46	24.8616
1083.35	47.1753
1086.24	31.4168
1089.14	41.9932
1092.03	28.3752
1094.92	39.3645
1097.81	47.9128
1100.71	20.7051
1103.6	21.7034
1106.49	10.3279
1109.38	12.1846
1112.28	15.2124
1115.17	38.3467
1118.06	23.927
1120.95	5.63403
1123.85	21.325
1126.74	108.611
1129.63	73.1318
1132.53	38.6411
1135.42	14.9692
1138.31	17.5405
1141.2	64.8545
1144.1	35.8779
1146.99	21.8782
1149.88	0.35083
1152.78	65.9731
1155.67	74.8098
1158.56	29.6081
1161.45	20.2656
1164.35	30.3669
1167.24	64.51
1170.13	54.2727
1173.02	26.6919
1175.92	18.1816
1178.81	51.8267
1181.7	40.1846
1184.6	31.3171
1187.49	81.6975
1190.38	49.7007
1193.27	58.1919
1196.16	36.2537
1199.06	53.7502
1201.95	36.5598
1204.84	54.2107
1207.74	16.8472
1210.63	3.26269
1213.52	50.0667
1216.41	63.4885
1219.31	58.6355
1222.2	67.5774
1225.09	69.208
1227.98	88.314
1230.88	47.2759
1233.77	56.571
1236.66	29.3242
1239.56	34.29
1242.45	100.86
1245.34	50.325
1248.23	23.4934
1251.13	2.47363
1254.02	56.0144
1256.91	26.0312
1259.81	50.1985
1262.7	49.6931
1265.59	45.283
1268.48	2.18408
1271.38	7.32788
