Measurement: Raman, 532 nm, unoriented, Raman Data Processed
Mineral: Berzelianite
Rruff sample: R060260
Ideal chemistry: Cu_2-x_Se (x  0.12)
Locality: Bukov mine, near Tisnova, Western Moravia, Czechoslovakia
Source: Michael Scott
Description: Black tarnished metallic coating
Measured chemistry: (Cu_1.77_[box]_0.23_)_Î£=2_Se_1.00_ ; trace amounts of S
Raman shift (cm-1)	intensity
127.615	0
130.99	2.47124
134.365	0.760208
137.74	6.97985
141.114	9.73151
144.489	18.2288
147.864	32.9666
151.239	44.9631
154.614	52.4884
157.988	59.4858
161.363	71.272
164.738	83.8625
168.113	80.8921
171.488	78.7832
174.863	73.9039
178.237	74.5085
181.612	71.2608
184.987	67.2615
188.362	63.5411
191.737	61.2863
195.112	54.5959
198.486	52.1413
201.861	46.8823
205.236	43.1064
208.611	39.6175
211.986	32.5207
215.36	31.4232
218.735	29.0312
222.11	24.8848
225.485	22.0456
228.86	20.2813
232.234	17.5293
235.609	15.3834
238.984	13.3924
242.359	11.4784
245.734	9.07019
249.109	8.46365
252.483	6.43268
255.858	5.317
259.233	2.88966
262.608	2.83618
265.983	1.91734
269.358	2.38162
272.732	0.638168
276.107	0.056412
279.482	0.972549
282.857	0.509888
286.232	0.52948
289.606	1.01451
292.981	0.081009
296.356	0.791031
299.731	0.495758
303.106	0.388718
306.481	0.977158
309.855	0.280441
313.23	0.13237
316.605	0.895554
319.98	0.011017
323.355	0.279221
326.729	1.14894
330.104	0.531708
333.479	1.85475
336.854	2.17255
340.229	1.6326
343.603	2.10672
346.978	5.58418
350.353	2.95351
353.728	3.32462
357.103	1.39134
360.478	2.51686
363.852	4.16475
367.227	3.87907
370.602	2.26131
373.977	3.04103
377.352	2.0217
380.726	1.44601
384.101	2.2507
387.476	2.56972
390.851	2.85892
394.226	2.82713
397.601	2.94936
400.975	1.03786
404.35	1.83281
407.725	2.86702
411.1	4.34079
414.475	2.30754
417.849	2.7867
421.224	0.991974
424.599	2.16838
427.974	1.64233
431.349	2.59526
434.724	3.1996
438.098	3.40112
441.473	4.86447
444.848	2.77599
448.223	1.66101
451.598	0.700699
454.972	0.990021
458.347	2.01184
461.722	1.15732
465.097	1.99187
468.472	2.76974
471.846	1.7
475.221	2.99388
478.596	2.02641
481.971	2.17573
485.346	2.28485
488.721	1.88333
492.095	1.07935
495.47	3.35779
498.845	3.69005
502.22	0.6745
505.595	1.65416
508.969	3.15471
512.344	0.765045
515.719	3.3734
519.094	1.13905
522.469	0.450607
525.844	3.07759
529.218	0.046921
532.593	0.33873
535.968	1.35194
539.343	1.49838
542.718	3.02261
546.092	0.799896
549.467	2.15401
552.842	1.8394
556.217	3.37437
559.592	2.23802
562.967	2.9527
566.341	1.33452
569.716	1.99655
573.091	2.08034
576.466	1.14314
579.841	1.05997
583.216	0.674637
586.59	1.46378
589.965	3.5311
593.34	1.0177
596.715	1.57941
600.09	1.53174
603.464	1.34073
606.839	1.45529
610.214	2.56918
613.589	2.13519
616.964	2.04343
620.338	1.97031
623.713	2.31076
627.088	1.21845
630.463	2.91428
633.838	3.72574
637.212	3.71866
640.587	1.93243
643.962	0.31192
647.337	2.18988
650.712	1.62051
654.087	3.53442
657.461	0.084778
660.836	3.6247
664.211	2.50778
667.586	2.08063
670.961	2.97653
674.335	2.74048
677.71	0.455841
681.085	1.05884
684.46	2.32904
687.835	0.73822
691.21	2.26978
694.584	0.609741
697.959	1.63577
701.334	1.99875
704.709	2.69705
708.084	1.30157
711.458	2.28174
714.833	2.49445
718.208	1.35809
721.583	0.98349
724.958	1.55469
728.332	0.792633
731.707	0.178894
735.082	1.82523
738.457	2.57092
741.832	1.65488
745.207	1.22272
748.581	2.54239
751.956	2.48321
755.331	0.23999
758.706	0.013397
762.081	2.07639
765.456	1.51346
768.83	5.84308
772.205	2.69949
775.58	2.27481
778.955	3.36392
782.33	3.0394
785.704	0.691925
789.079	2.21551
792.454	3.07687
795.829	1.44074
799.204	2.27316
802.578	1.36652
805.953	3.17218
809.328	0.650024
812.703	2.7861
816.078	1.32312
819.453	1.89545
822.827	4.29376
826.202	1.66028
829.577	4.64093
832.952	3.62582
836.327	2.45068
839.702	2.45438
843.076	0.786926
846.451	2.71054
849.826	1.55267
853.201	2.7854
856.576	2.31732
859.95	2.51947
863.325	3.76904
866.7	3.3981
870.075	2.20856
873.45	3.77582
876.824	2.20404
880.199	1.1149
883.574	1.25925
886.949	2.40958
890.324	0.880341
893.698	2.3273
897.073	2.64566
900.448	1.95865
903.823	3.44363
907.198	1.78754
910.573	0.167175
913.947	2.17481
917.322	1.34842
920.697	3.25897
924.072	2.27817
927.447	0.886383
930.822	3.00989
934.196	3.25009
937.571	1.68253
940.946	2.15244
944.321	1.47833
947.696	2.54349
951.07	2.38946
954.445	3.45425
957.82	2.4071
961.195	4.1077
964.57	4.42688
967.944	0.492493
971.319	0.923828
974.694	2.20309
978.069	3.79779
981.444	4.24365
984.819	3.85953
988.193	2.38586
991.568	2.84756
994.943	2.39975
998.318	0.168457
1001.69	3.65185
1005.07	4.25357
1008.44	0.09967
1011.82	2.00259
1015.19	5.03918
1018.57	1.42279
1021.94	4.39951
1025.32	0.174194
1028.69	3.85016
1032.07	2.81372
1035.44	3.46136
1038.82	0.37085
1042.19	1.2532
1045.57	4.16739
1048.94	0.596008
1052.32	2.94965
1055.69	4.14697
1059.07	1.22226
1062.44	4.72351
1065.81	1.81747
1069.19	0.459473
1072.56	1.36353
1075.94	0.308807
1079.31	2.11533
1082.69	3.81284
1086.06	0.184723
1089.44	1.83868
1092.81	1.31753
1096.19	1.97836
1099.56	2.63022
1102.94	1.38562
1106.31	4.0466
1109.69	2.56146
1113.06	1.42914
1116.44	6.0838
1119.81	3.26257
1123.19	3.50854
1126.56	1.88303
1129.94	2.00418
1133.31	1.85223
1136.68	4.11063
1140.06	2.27524
1143.43	4.64441
1146.81	4.57944
1150.18	1.51639
1153.56	2.14029
1156.93	0.763855
1160.31	0.14624
1163.68	1.46616
1167.06	0.141876
1170.43	2.87128
1173.81	1.20373
1177.18	2.56497
1180.56	0.549774
1183.93	2.25629
1187.31	1.52835
1190.68	0.853363
1194.06	0.391602
1197.43	1.93329
1200.81	1.4483
1204.18	0.738312
1207.56	3.57224
1210.93	4.28369
1214.31	3.97903
1217.68	2.49228
1221.06	0.557983
1224.43	0.894501
1227.81	2.63934
1231.18	4.21616
1234.56	1.39926
1237.93	1.96576
1241.31	1.50815
1244.68	3.55466
1248.05	3.19717
1251.43	6.03705
1254.8	4.04797
1258.18	2.29709
1261.55	1.63019
1264.93	0.627716
1268.3	2.42526
1271.68	2.42374
1275.05	2.73489
1278.43	3.92996
1281.8	1.38986
1285.18	2.58933
1288.55	1.37363
1291.93	3.68683
1295.3	1.51407
1298.68	1.42673
1302.05	2.23123
