Measurement: Raman, 785 nm, unoriented, Raman Data Processed
Mineral: Berzeliite
Rruff sample: R061084
Ideal chemistry: NaCa_2_Mg_2_(As^5+^O_4_)_3_
Locality: Jakobsberg mine, Nordmark, Filipstad, Varmland, Sweden
Source: Michael Scott
Description: Light yellow irregular shaped crystal, associated with colorless tilasite and adelite, R060687
Measured chemistry: (Na_0.92_Ca_0.08_)Ca_2.03_(Mg_1.91_Mn_0.11_)[(As_0.96_Si_0.03_P_0.01_)O_4_]_3_
Raman shift (cm-1)	intensity
157.204	0
160.097	9.97705
162.989	374.791
165.882	715.537
168.775	1035.87
171.668	938.995
174.56	623.833
177.453	583.167
180.346	555.871
183.238	547.344
186.131	753.01
189.024	811.813
191.917	719.969
194.809	786.093
197.702	713.038
200.595	615.849
203.487	435.038
206.38	254.044
209.273	52.613
212.165	0.570068
215.058	101.736
217.951	214.745
220.844	301.507
223.736	370.519
226.629	566.05
229.522	925.858
232.414	1345.77
235.307	1784.37
238.2	2201.2
241.092	2462.96
243.985	2396.62
246.878	2045.33
249.77	1602.88
252.663	1216.03
255.556	699.011
258.449	341.07
261.341	102.1
264.234	173.156
267.127	191.748
270.019	247.063
272.912	210.46
275.805	95.3872
278.697	93.7012
281.59	389.097
284.483	712.59
287.376	1196.06
290.268	1755.59
293.161	2444.26
296.054	2895.27
298.946	3632.29
301.839	4371.54
304.732	5101.18
307.625	6196.4
310.517	7569.37
313.41	9327.55
316.303	11738.2
319.195	14424.6
322.088	17684.7
324.981	20628.6
327.873	22801
330.766	23544.9
333.659	22755.6
336.551	20654.1
339.444	18593
342.337	16907.1
345.23	15784.5
348.122	14880.8
351.015	14157.8
353.908	13580.6
356.8	12749.9
359.693	11663.3
362.586	10328.9
365.478	8844.46
368.371	7489.43
371.264	6225.92
374.157	5246.85
377.049	4231.98
379.942	3436.77
382.835	2608.45
385.727	2162.02
388.62	1767.7
391.513	1465.53
394.406	1344.33
397.298	1153.24
400.191	1131.41
403.084	822.947
405.976	435.353
408.869	34.1055
411.762	314.572
414.654	429.032
417.547	345.531
420.44	30.77
423.332	400.422
426.225	1041.27
429.118	1870.72
432.011	2890.32
434.903	3942.54
437.796	5253.44
440.689	6563.58
443.581	7704.82
446.474	8782.28
449.367	9287.85
452.26	9627.2
455.152	9340.25
458.045	8754.74
460.938	7934.8
463.83	7118.15
466.723	6326.74
469.616	5553.23
472.508	4591.16
475.401	3607.08
478.294	2928.21
481.187	2354.06
484.079	2142.02
486.972	2037.46
489.865	1972.98
492.757	1966.37
495.65	2028.92
498.543	1974.45
501.435	2110.86
504.328	2000.78
507.221	1693.23
510.114	1459.84
513.006	988.555
515.899	729.768
518.792	633.232
521.684	529.296
524.577	386.07
527.47	295.88
530.362	204.833
533.255	102.442
536.148	84.2319
539.04	61.98
541.933	41.79
544.826	55.5254
547.719	119.26
550.611	49.7241
553.504	69.5674
556.397	166.768
559.289	317.733
562.182	395.365
565.075	616.269
567.967	658.544
570.86	839.004
573.753	1140.43
576.646	1176.17
579.538	1264.42
582.431	1356.59
585.324	1286.87
588.216	1205.88
591.109	1122.19
594.002	961.523
596.895	839.901
599.787	651.326
602.68	465.857
605.573	311.214
608.465	201.044
611.358	31.5447
614.251	27.4839
617.144	2.79907
620.036	10.1467
622.929	33.9353
625.822	32.116
628.714	133.041
631.607	234.405
634.5	354.826
637.392	402.581
640.285	512.21
643.178	504.683
646.071	648.511
648.963	587.812
651.856	751.34
654.749	815.783
657.641	696.06
660.534	805.997
663.427	823.845
666.319	859.346
669.212	912.012
672.105	945.962
674.997	1083.78
677.89	995.33
680.783	954.057
683.676	926.767
686.568	907.545
689.461	875.751
692.354	745.151
695.246	676.153
698.139	551.691
701.032	428.836
703.924	403.606
706.817	252.166
709.71	213.453
712.603	193.131
715.495	108.215
718.388	43.4607
721.281	60.52
724.173	50.7119
727.066	74.3657
729.959	74.3206
732.851	42.2173
735.744	82.4368
738.637	97.5322
741.53	80.0396
744.422	72.626
747.315	77.9871
750.208	263.065
753.1	418.276
755.993	601.112
758.886	766.5
761.779	956.254
764.671	1008.8
767.564	1188.19
770.457	1327.08
773.349	1331.29
776.242	1461.39
779.135	1407.05
782.027	1309.92
784.92	1239.99
787.813	1178.43
790.706	1050.12
793.598	935.1
796.491	883.054
799.384	771.051
802.276	908.034
805.169	1257.09
808.062	1760.03
810.954	2397.54
813.847	3359.65
816.74	4742.73
819.633	6459.94
822.525	7838.65
825.418	9139.4
828.311	10235.8
831.203	11360.1
834.096	12592.1
836.989	13871.9
839.881	14624
842.774	14454.5
845.667	13030.9
848.559	10788.4
851.452	8194.53
854.345	5703.7
857.238	4102.68
860.13	2860.38
863.023	1946.11
865.916	1364.81
868.808	1038.83
871.701	678.978
874.594	491.909
877.486	469.315
880.379	434.214
883.272	354.905
886.165	430.903
889.057	394.275
891.95	333.824
894.843	288.694
897.735	145.775
900.628	154.923
903.521	136.965
906.413	228.153
909.306	277.082
912.199	301.908
915.092	225.523
917.984	128.93
920.877	74.6279
923.77	157.655
926.663	240.721
929.555	87.4751
932.448	31.0312
935.341	109.572
938.233	82.8279
941.126	117.612
944.019	159.382
946.911	221.242
949.804	169.771
952.697	320.644
955.59	236.716
958.482	285.146
961.375	367.72
964.268	337.709
967.16	342.107
970.053	375.934
972.946	523.436
975.838	372.713
978.731	507.458
981.624	505.773
984.516	367.317
987.409	261.1
990.302	251.219
993.195	68.3545
996.087	154.03
998.98	151.165
1001.87	179.356
1004.76	126.866
1007.66	55.5855
1010.55	90.8276
1013.44	11.2002
1016.34	10.9165
1019.23	81.2856
1022.12	70.9971
1025.01	247.131
1027.91	239.261
1030.8	59.4121
1033.69	273.294
1036.59	130.806
1039.48	100.723
1042.37	74.0918
1045.26	142.023
1048.16	275.218
1051.05	607.451
1053.94	938.239
1056.83	1454.6
1059.73	2091.22
1062.62	3076.54
1065.51	4157.63
1068.4	5605.37
1071.3	7563.28
1074.19	10024.6
1077.08	13101.9
1079.98	17042.9
1082.87	22257.5
1085.76	29051.5
1088.65	38012.7
1091.55	49825.1
1094.44	64160.4
1097.33	80526.9
1100.22	98070.2
1103.12	113586
1106.01	124806
1108.9	130573
1111.8	129760
1114.69	122284
1117.58	109930
1120.47	95344.4
1123.37	80378
1126.26	66618.3
1129.15	54520.9
1132.04	43927.9
1134.94	35308.6
1137.83	28477.2
1140.72	22854.5
1143.62	18328.8
1146.51	14656.9
1149.4	11713.2
1152.29	9215.82
1155.19	7141.9
1158.08	5580.3
1160.97	4034.26
1163.86	2813.12
1166.76	1885.06
1169.65	1152.13
1172.54	424.492
1175.43	147.786
1178.33	497.302
1181.22	658.059
1184.11	648.163
1187.01	464.53
1189.9	26.9297
1192.79	678.34
1195.68	1401.24
1198.58	2494.57
1201.47	3439.77
1204.36	4505.25
1207.25	5466.05
1210.15	6786.31
1213.04	8154.95
1215.93	9856.24
1218.83	11490
1221.72	13048.6
1224.61	14362.7
1227.5	14761.4
1230.4	14955.3
1233.29	15425.1
1236.18	15566
1239.07	15478.6
1241.97	14911.8
1244.86	13533.4
1247.75	11730
1250.64	9580.63
1253.54	7502.17
1256.43	5410.47
1259.32	3410.12
1262.22	1761.1
1265.11	634.264
1268	76.5371
1270.89	28.6953
