Measurement: Raman, 780 nm, unoriented, Raman Data Processed
Mineral: Berzelianite
Rruff sample: R060260
Ideal chemistry: Cu_2-x_Se (x  0.12)
Locality: Bukov mine, near Tisnova, Western Moravia, Czechoslovakia
Source: Michael Scott
Description: Black tarnished metallic coating
Measured chemistry: (Cu_1.77_[box]_0.23_)_Î£=2_Se_1.00_ ; trace amounts of S
Raman shift (cm-1)	intensity
93.4617	0
96.8365	5.58334
100.211	0.13649
103.586	2.71666
106.961	7.2739
110.336	2.02647
113.711	1.7542
117.085	0.457962
120.46	0.9935
123.835	2.50578
127.21	2.51375
130.585	1.69591
133.959	2.49455
137.334	0.272141
140.709	0.699203
144.084	0.016724
147.459	0.828537
150.834	1.62894
154.208	2.42401
157.583	3.83495
160.958	4.29398
164.333	5.11148
167.708	6.13278
171.083	6.47002
174.457	4.96188
177.832	5.12221
181.207	7.06357
184.582	4.4875
187.957	4.02153
191.331	6.03957
194.706	5.43752
198.081	0.913589
201.456	3.56984
204.831	3.71281
208.205	3.05103
211.58	2.05817
214.955	3.18866
218.33	1.4465
221.705	3.37033
225.079	1.37392
228.454	1.69237
231.829	1.02736
235.204	1.5365
238.579	2.32613
241.954	2.25871
245.328	2.83073
248.703	2.49412
252.078	1.45856
255.453	2.12049
258.828	0.011101
262.202	0.580132
265.577	1.2749
268.952	0.908348
272.327	1.98286
275.702	1.55421
279.077	1.71985
282.451	0.96402
285.826	0.131058
289.201	1.75613
292.576	1.39073
295.951	0.83329
299.325	3.65041
302.7	0.542877
306.075	2.43199
309.45	2.40288
312.825	0.75679
316.2	1.89905
319.574	0.944954
322.949	0.95739
326.324	1.91312
329.699	3.53584
333.074	1.33538
336.449	2.3129
339.823	1.5218
343.198	1.36597
346.573	0.106247
349.948	0.839554
353.323	1.51109
356.697	1.82167
360.072	0.716354
363.447	2.69821
366.822	2.08304
370.197	1.38985
373.572	2.09071
376.946	1.41736
380.321	0.438614
383.696	1.59243
387.071	0.750191
390.446	2.4196
393.82	1.57384
397.195	2.07051
400.57	1.37576
403.945	0.34185
407.32	0.940155
410.695	0.897652
414.069	0.296066
417.444	0.534439
420.819	1.70201
424.194	0.59082
427.569	3.69088
430.943	1.41599
434.318	2.29637
437.693	1.77369
441.068	1.43547
444.443	0.632103
447.817	0.079231
451.192	1.74824
454.567	2.2409
457.942	2.37285
461.317	1.21672
464.692	0.66436
468.066	4.41791
471.441	2.1388
474.816	4.868
478.191	1.96471
481.566	2.47858
484.94	3.78054
488.315	2.03808
491.69	2.64986
495.065	1.42493
498.44	1.6384
501.815	1.20254
505.189	4.43882
508.564	2.36171
511.939	0.127007
515.314	1.99898
518.689	0.917656
522.063	0.637177
525.438	0.218071
528.813	1.2467
532.188	0.153778
535.563	1.75243
538.938	1.29946
542.312	0.543228
545.687	1.15954
549.062	1.65337
552.437	1.77788
555.812	1.12519
559.186	1.83477
562.561	0.367409
565.936	1.5389
569.311	1.27292
572.686	1.68904
576.061	0.984413
579.435	0.135338
582.81	0.768227
586.185	0.576462
589.56	2.32993
592.935	0.853958
596.309	1.12264
599.684	0.363586
603.059	1.50248
606.434	0.698273
609.809	0.841072
613.183	0.65818
616.558	0.810867
619.933	0.088699
623.308	1.94199
626.683	1.99049
630.058	2.13903
633.432	1.18495
636.807	3.53193
640.182	2.02995
643.557	1.40495
646.932	0.76873
650.307	1.51669
653.681	2.60686
657.056	2.54257
660.431	1.85458
663.806	1.8881
667.181	2.75826
670.555	2.97304
673.93	0.343193
677.305	2.03329
680.68	1.16407
684.055	0.869164
687.429	1.29378
690.804	1.26847
694.179	0.406883
697.554	1.35236
700.929	1.63464
704.304	1.92548
707.678	2.5638
711.053	1.72619
714.428	0.667816
717.803	1.23778
721.178	1.53556
724.553	0.281921
727.927	0.70208
731.302	1.8307
734.677	0.884781
738.052	2.06622
741.427	1.05341
744.801	1.33021
748.176	1.4623
751.551	1.44592
754.926	0.715805
758.301	0.472328
761.676	1.94285
765.05	1.47449
768.425	1.9251
771.8	1.01001
775.175	0.668922
778.55	0.379471
781.924	2.12399
785.299	2.44144
788.674	0.11647
792.049	2.47738
795.424	1.75227
798.798	2.98504
802.173	0.391205
805.548	2.55955
808.923	1.20023
812.298	2.08817
815.673	2.15315
819.047	3.74132
822.422	4.32377
825.797	3.05723
829.172	3.04145
832.547	3.69473
835.921	2.99957
839.296	2.94591
842.671	4.41775
846.046	0.749252
849.421	2.19051
852.795	3.83682
856.17	3.86372
859.545	2.28143
862.92	3.28317
866.295	2.25742
869.67	1.72779
873.044	3.85351
876.419	3.38841
879.794	1.29612
883.169	3.0846
886.544	2.76075
889.918	1.94584
893.293	1.5408
896.668	0.924271
900.043	1.91196
903.418	1.32895
906.793	0.141846
910.167	0.614723
913.542	0.513252
916.917	0.231293
920.292	2.73747
923.667	1.34483
927.042	0.142204
930.416	0.151604
933.791	0.35199
937.166	0.667839
940.541	1.61056
943.916	1.71456
947.29	1.92917
950.665	0.230858
954.04	2.09362
957.415	1.00535
960.79	0.622215
964.164	0.189705
967.539	2.84699
970.914	1.29686
974.289	2.76876
977.664	1.14924
981.039	1.3586
984.413	0.983833
987.788	0.92337
991.163	3.94775
994.538	1.10159
997.913	0.936958
1001.29	2.9751
1004.66	2.2096
1008.04	0.623344
1011.41	2.02299
1014.79	0.975937
1018.16	1.73766
1021.54	3.91886
1024.91	1.04178
1028.29	2.05134
1031.66	1.11114
1035.04	2.4015
1038.41	0.926849
1041.79	3.29114
1045.16	2.23596
1048.54	4.0683
1051.91	2.74738
1055.29	3.06242
1058.66	3.33096
1062.03	0.92704
1065.41	2.2964
1068.78	1.28759
1072.16	2.42854
1075.53	2.92821
1078.91	1.14654
1082.28	2.51357
1085.66	3.32465
1089.03	1.77054
1092.41	2.45357
1095.78	1.38061
1099.16	2.3261
1102.53	0.616074
1105.91	1.66393
1109.28	3.71249
1112.66	0.035629
1116.03	1.3461
1119.41	1.04508
1122.78	0.946503
1126.16	0.084572
1129.53	2.62048
1132.9	2.0089
1136.28	2.54694
1139.65	1.66841
1143.03	2.10253
1146.4	2.9326
1149.78	0.545662
1153.15	2.07578
1156.53	2.50939
1159.9	1.051
1163.28	3.01124
1166.65	2.3893
1170.03	2.6945
1173.4	1.48245
1176.78	1.68694
1180.15	2.40959
1183.53	1.69122
1186.9	2.63781
1190.28	3.56364
1193.65	3.37704
1197.03	1.99745
1200.4	2.41303
1203.78	2.02171
1207.15	1.91419
1210.53	1.78686
1213.9	0.558739
1217.28	1.64379
1220.65	1.61165
1224.03	2.89026
1227.4	3.58308
1230.78	1.07674
1234.15	2.20493
1237.53	2.41893
1240.9	2.7748
1244.27	0.602173
1247.65	1.36128
1251.02	3.09041
1254.4	1.50656
1257.77	1.9864
1261.15	2.99283
1264.52	1.57848
1267.9	3.2196
1271.27	1.21246
1274.65	0.256439
1278.02	3.36876
1281.4	1.77571
1284.77	1.33489
