Measurement: Raman, 532 nm, unoriented, Raman Data Processed
Mineral: Betekhtinite
Rruff sample: R070087
Ideal chemistry: (Cu,Fe)_21_Pb_2_S_15_
Locality: Dzhezkazgan deposit, central Kazakhstan
Source: Michael Scott
Description: Aggregate of black bladed to prismatic crystals associated with quartz
Measured chemistry: (Cu_20.15_Fe_0.85_)_Σ=21_(Pb_1.80_Ag_0.11_Fe_0.09_)_Σ=2_S_15.00_
Raman shift (cm-1)	intensity
148.252	0
151.627	20.1596
155.002	48.5756
158.377	8.58295
161.751	6.00574
165.126	0.163635
168.501	19.5127
171.876	31.7639
175.251	30.0102
178.625	16.0345
182	26.5942
185.375	20.8404
188.75	33.9064
192.125	32.5897
195.5	25.3312
198.874	31.777
202.249	25.9971
205.624	18.0372
208.999	24.1951
212.374	19.3112
215.749	31.5796
219.123	11.1832
222.498	13.8897
225.873	32.2233
229.248	11.8641
232.623	17.5638
235.997	2.18964
239.372	6.45465
242.747	16.2363
246.122	18.6052
249.497	32.0665
252.871	27.4705
256.246	17.2659
259.621	17.0499
262.996	34.8332
266.371	31.0375
269.746	24.0223
273.12	11.4055
276.495	5.50702
279.87	38.7513
283.245	27.5186
286.62	37.108
289.995	25.1782
293.369	29.9064
296.744	13.9729
300.119	38.4875
303.494	19.6105
306.869	22.0605
310.243	32.4092
313.618	21.5619
316.993	27.2374
320.368	29.952
323.743	27.0504
327.118	14.0471
330.492	31.567
333.867	14.0107
337.242	22.4155
340.617	2.85107
343.992	15.5953
347.366	10.7316
350.741	20.6256
354.116	14.3334
357.491	15.9402
360.866	31.9778
364.24	12.42
367.615	7.19782
370.99	1.57568
374.365	2.20215
377.74	0.261353
381.115	2.82526
384.489	30.0792
387.864	18.4124
391.239	19.9039
394.614	7.16937
397.989	33.5563
401.363	17.0041
404.738	10.6868
408.113	1.58484
411.488	3.24573
414.863	5.92944
418.238	9.66699
421.612	12.4023
424.987	11.6154
428.362	8.13709
431.737	16.5552
435.112	22.9765
438.486	8.67371
441.861	22.8334
445.236	28.9216
448.611	15.3588
451.986	22.1401
455.361	3.96954
458.735	4.51117
462.11	6.89838
465.485	20.2998
468.86	12.8287
472.235	24.3992
475.61	12.7448
478.984	12.1757
482.359	4.09589
485.734	13.8983
489.109	28.7085
492.484	35.8062
495.858	3.07892
499.233	14.6074
502.608	6.52631
505.983	8.974
509.358	24.5409
512.732	19.7452
516.107	15.1459
519.482	12.7028
522.857	21.7375
526.232	12.9031
529.607	21.3552
532.981	29.7421
536.356	22.8304
539.731	31.8234
543.106	12.1266
546.481	24.8922
549.856	6.86597
553.23	15.4041
556.605	30.7059
559.98	0.911987
563.355	10.0514
566.73	15.8319
570.104	4.79828
573.479	17.4263
576.854	9.02545
580.229	27.5535
583.604	26.8792
586.979	1.29407
590.353	18.7883
593.728	19.295
597.103	6.69702
600.478	18.3652
603.852	35.1581
607.227	1.17102
610.602	4.6944
613.977	19.2179
617.352	8.32532
620.727	19.0212
624.101	18.5167
627.476	16.4884
630.851	7.3595
634.226	21.0617
637.601	1.08881
640.976	28.0521
644.35	4.55585
647.725	14.4866
651.1	22.5806
654.475	13.8562
657.85	17.3117
661.224	20.0944
664.599	29.8961
667.974	23.2885
671.349	8.21527
674.724	16.0284
678.098	33.4893
681.473	19.0164
684.848	21.5337
688.223	7.5144
691.598	12.1609
694.973	21.4028
698.347	14.1374
701.722	33.3067
705.097	29.718
708.472	31.442
711.847	21.3583
715.221	30.7003
718.596	20.6623
721.971	36.3976
725.346	43.007
728.721	27.343
732.096	43.5839
735.471	25.7674
738.845	40.9719
742.22	36.8652
745.595	25.1572
748.97	22.922
752.345	23.604
755.719	16.9926
759.094	37.8984
762.469	12.3098
765.844	30.5038
769.219	24.4259
772.593	6.24237
775.968	30.3608
779.343	22.1636
782.718	28.7037
786.093	45.7315
789.467	20.0699
792.842	5.89197
796.217	13.235
799.592	17.0339
802.967	7.33026
806.342	31.9493
809.716	8.06946
813.091	7.14832
816.466	30.8503
819.841	29.9947
823.216	2.37769
826.591	26.5778
829.965	27.5073
833.34	3.8609
836.715	19.7877
840.09	7.76306
843.465	12.4398
846.839	25.9254
850.214	10.1428
853.589	32.4688
856.964	36.3518
860.339	30.8246
863.713	11.4329
867.088	1.92322
870.463	15.1508
873.838	40.1899
877.213	15.996
880.588	19.4908
883.962	32.0791
887.337	43.0105
890.712	1.49255
894.087	17.0673
897.462	28.7507
900.837	5.91638
904.211	25.5261
907.586	25.8092
910.961	46.7883
914.336	46.0591
917.711	0.161499
921.085	32.0553
924.46	21.9176
927.835	19.9206
931.21	1.40601
934.585	52.1251
937.96	31.1329
941.334	26.4834
944.709	19.5221
948.084	10.7278
951.459	2.86523
954.834	38.9375
958.208	17.2242
961.583	42.8993
964.958	22.9652
968.333	11.9164
971.708	4.91638
975.082	28.1127
978.457	29.689
981.832	21.6801
985.207	23.3459
988.582	3.08582
991.957	4.80347
995.331	16.5403
998.706	34.1613
1002.08	34.6322
1005.46	25.7123
1008.83	33.6486
1012.21	3.25549
1015.58	13.1434
1018.96	9.18567
1022.33	33.6957
1025.7	8.0824
1029.08	7.22363
1032.45	27.0402
1035.83	20.8326
1039.2	26.5189
1042.58	27.5962
1045.95	31.7434
1049.33	41.1373
1052.7	30.5877
1056.08	8.66699
1059.45	25.6066
1062.83	43.1113
1066.2	13.8439
1069.58	31.7872
1072.95	6.15295
1076.33	37.9988
1079.7	32.6694
1083.08	10.7532
1086.45	30.8525
1089.83	2.57495
1093.2	40.9038
1096.58	28.3086
1099.95	19.1763
1103.33	25.3973
1106.7	27.5532
1110.08	18.7329
1113.45	17.5784
1116.83	22.3757
1120.2	43.5503
1123.57	20.1526
1126.95	24.4913
1130.32	26.6439
1133.7	34.4475
1137.07	13.6858
1140.45	1.76086
1143.82	11.4548
1147.2	48.1039
1150.57	37.9086
1153.95	16.8159
1157.32	1.0188
1160.7	44.2188
1164.07	1.70459
1167.45	21.898
1170.82	34.1942
1174.2	19.4136
1177.57	16.0659
1180.95	2.22302
1184.32	17.2181
1187.7	0.871338
1191.07	15.2529
1194.45	18.7474
1197.82	12.9159
1201.19	27.1969
1204.57	22.5663
1207.94	16.8394
1211.32	6.54309
1214.69	17.0946
1218.07	13.5985
1221.44	43.5938
1224.82	47.1215
1228.19	36.6058
1231.57	29.203
1234.94	20.9443
1238.32	15.2601
1241.69	27.2281
1245.07	36.1179
1248.44	32.603
1251.82	32.4819
1255.19	14.2206
1258.57	35.7676
1261.94	18.007
1265.32	39.103
1268.69	26.3905
1272.07	25.6506
1275.44	24.0919
1278.82	25.7672
1282.19	21.9949
1285.57	53.5613
1288.94	24.3492
1292.32	44.6136
1295.69	17.7279
1299.07	39.4242
1302.44	51.8123
1305.82	66.7825
1309.19	4.54382
1312.56	58.6792
1315.94	34.9359
