Measurement: Raman, 785 nm, unoriented, Raman Data Processed
Mineral: Betekhtinite
Rruff sample: R070087
Ideal chemistry: (Cu,Fe)_21_Pb_2_S_15_
Locality: Dzhezkazgan deposit, central Kazakhstan
Source: Michael Scott
Description: Aggregate of black bladed to prismatic crystals associated with quartz
Measured chemistry: (Cu_20.15_Fe_0.85_)_Σ=21_(Pb_1.80_Ag_0.11_Fe_0.09_)_Σ=2_S_15.00_
Raman shift (cm-1)	intensity
157.951	0
160.844	0.881409
163.736	33.1305
166.629	61.8462
169.522	99.554
172.414	106.295
175.307	94.5754
178.2	108.219
181.093	115.401
183.985	113.161
186.878	121.294
189.771	110.011
192.663	107.754
195.556	151.509
198.449	96.4564
201.341	136.061
204.234	91.6255
207.127	104.612
210.019	95.7817
212.912	121.118
215.805	79.7827
218.698	102.82
221.59	89.4686
224.483	77.1511
227.376	87.1667
230.268	72.8418
233.161	39.792
236.054	45.0513
238.946	40.3186
241.839	50.2405
244.732	68.3812
247.625	23.8986
250.517	34.3932
253.41	28.061
256.303	42.1639
259.195	27.8297
262.088	32.6963
264.981	29.0373
267.873	44.8456
270.766	27.6639
273.659	1.04431
276.552	34.7833
279.444	38.7805
282.337	8.86585
285.23	12.8285
288.122	38.7948
291.015	0.215332
293.908	19.6086
296.8	17.8024
299.693	8.00745
302.586	19.7891
305.479	25.5232
308.371	25.0334
311.264	28.3414
314.157	29.1303
317.049	36.6364
319.942	0.294922
322.835	1.37195
325.728	7.85413
328.62	15.1847
331.513	4.49451
334.406	45.1855
337.298	16.1841
340.191	7.44958
343.084	6.52527
345.976	29.7255
348.869	17.6062
351.762	12.2271
354.654	9.46973
357.547	9.73413
360.44	15.2555
363.333	3.40515
366.225	5.38574
369.118	15.5587
372.011	5.75305
374.903	35.1599
377.796	21.0275
380.689	1.66382
383.582	44.3588
386.474	4.0979
389.367	47.9482
392.26	28.1243
395.152	50.3575
398.045	29.806
400.938	34.6339
403.83	10.2961
406.723	47.7086
409.616	38.3745
412.509	24.7134
415.401	37.9021
418.294	22.7006
421.187	25.9391
424.079	36.1478
426.972	1.45154
429.865	45.251
432.757	18.8337
435.65	19.7213
438.543	41.397
441.435	14.0866
444.328	30.8274
447.221	45.9082
450.114	23.0725
453.006	33.5904
455.899	33.5713
458.792	27.8851
461.684	11.9037
464.577	13.5227
467.47	33.9895
470.363	22.7588
473.255	25.8447
476.148	30.9271
479.041	20.6329
481.933	18.3262
484.826	12.447
487.719	34.335
490.611	34.7353
493.504	39.0981
496.397	34.8507
499.289	22.6954
502.182	12.7983
505.075	30.8055
507.968	32.7051
510.86	29.7031
513.753	4.6134
516.646	7.81018
519.538	21.5338
522.431	16.0456
525.324	18.3855
528.217	2.56018
531.109	5.22192
534.002	11.3833
536.895	14.5726
539.787	16.5254
542.68	25.9542
545.573	25.6445
548.466	47.7927
551.358	6.72424
554.251	45.8676
557.144	3.99158
560.036	49.5939
562.929	23.7133
565.822	12.1605
568.714	13.0515
571.607	25.2556
574.5	57.6713
577.392	12.7382
580.285	42.3533
583.178	3.50708
586.071	9.24731
588.963	14.0641
591.856	47.5194
594.749	5.44373
597.641	26.7809
600.534	50.135
603.427	0.036621
606.319	29.7882
609.212	53.8821
612.105	14.3231
614.997	24.4072
617.89	29.2985
620.783	2.90124
623.676	35.9014
626.568	3.06531
629.461	39.0926
632.354	40.2665
635.246	12.1736
638.139	14.5354
641.032	31.36
643.924	0.265137
646.817	31.7948
649.71	40.8302
652.603	40.0671
655.495	40.9368
658.388	36.2971
661.281	35.3015
664.173	32.9044
667.066	34.5402
669.959	31.3997
672.851	27.5354
675.744	19.7424
678.637	23.4871
681.53	53.5573
684.422	28.5742
687.315	2.90478
690.208	11.0094
693.1	29.9292
695.993	20.2338
698.886	18.9569
701.779	4.55066
704.671	30.6041
707.564	39.7552
710.457	21.9324
713.349	34.1191
716.242	39.6964
719.135	8.57727
722.027	31.8554
724.92	37.1263
727.813	29.4563
730.706	24.0949
733.598	41.7445
736.491	4.76318
739.384	29.6256
742.276	22.9976
745.169	14.202
748.062	25.564
750.954	2.4696
753.847	48.1446
756.74	57.0908
759.633	18.0564
762.525	37.3676
765.418	4.3739
768.311	30.2617
771.203	35.0106
774.096	5.84851
776.989	2.83264
779.881	21.663
782.774	55.8236
785.667	26.1163
788.559	12.8921
791.452	74.0692
794.345	22.7903
797.238	44.3131
800.13	40.783
803.023	2.90051
805.916	6.20642
808.808	23.3475
811.701	23.7833
814.594	29.9701
817.486	21.526
820.379	28.7231
823.272	15.0898
826.165	17.791
829.057	37.63
831.95	43.3989
834.843	42.4502
837.735	55.4829
840.628	38.0901
843.521	35.833
846.413	28.6979
849.306	3.98596
852.199	19.9696
855.092	41.9126
857.984	34.6135
860.877	12.4556
863.77	28.1606
866.662	2.1488
869.555	5.4613
872.448	33.0074
875.341	13.1362
878.233	13.007
881.126	36.6376
884.019	38.1763
886.911	48.6594
889.804	5.073
892.697	15.4078
895.589	24.4502
898.482	11.9961
901.375	31.5135
904.268	44.5287
907.16	32.1235
910.053	25.6007
912.946	16.806
915.838	42.8444
918.731	22.3783
921.624	7.70435
924.516	14.4779
927.409	9.24438
930.302	13.255
933.194	30.4181
936.087	26.6918
938.98	37.3052
941.873	34.2145
944.765	22.933
947.658	37.5398
950.551	16.3317
953.443	10.6177
956.336	18.2163
959.229	22.2188
962.121	40.3957
965.014	23.9852
967.907	20.1726
970.8	17.4911
973.692	19.1602
976.585	24.2637
979.478	24.9519
982.37	31.1942
985.263	24.4215
988.156	1.55689
991.048	22.097
993.941	2.80225
996.834	24.3601
999.727	26.7227
1002.62	42.6107
1005.51	33.1342
1008.4	29.8406
1011.3	27.0803
1014.19	42.3865
1017.08	36.3378
1019.98	26.0645
1022.87	14.9871
1025.76	29.8263
1028.65	50.5654
1031.55	23.2549
1034.44	26.5475
1037.33	28.1654
1040.22	16.2184
1043.12	2.22217
1046.01	20.5144
1048.9	23.3788
1051.8	36.3735
1054.69	39.2134
1057.58	17.24
1060.47	20.2239
1063.37	14.2685
1066.26	22.3657
1069.15	25.5387
1072.04	35.6508
1074.94	51.0233
1077.83	24.0853
1080.72	19.9153
1083.62	55.6748
1086.51	40.7642
1089.4	5.63501
1092.29	29.3578
1095.19	29.5272
1098.08	27.7737
1100.97	24.4058
1103.86	19.8297
1106.76	29.8164
1109.65	47.6183
1112.54	23.5232
1115.43	31.8538
1118.33	32.3037
1121.22	29.9075
1124.11	39.0636
1127.01	12.4026
1129.9	45.8983
1132.79	13.3286
1135.68	51.8356
1138.58	11.3784
1141.47	33.4058
1144.36	14.9443
1147.25	19.9051
1150.15	38.4543
1153.04	0.983032
1155.93	4.73926
1158.83	8.92529
1161.72	25.9148
1164.61	16.8384
1167.5	6.75317
1170.4	23.9784
1173.29	42.3666
1176.18	16.5832
1179.07	6.60693
1181.97	33.3449
1184.86	21.2925
1187.75	21.1383
1190.64	56.8862
1193.54	27.4891
1196.43	31.918
1199.32	30.731
1202.22	28.5582
1205.11	2.83276
1208	15.0928
1210.89	5.69006
1213.79	28.0764
1216.68	42.4979
1219.57	15.8308
1222.46	35.6415
1225.36	14.0651
1228.25	1.50452
1231.14	1.67542
1234.04	18.8093
1236.93	26.8303
1239.82	12.5391
1242.71	4.36743
