Measurement: Raman, 532 nm, unoriented, Raman Data Processed
Mineral: Billingsleyite
Rruff sample: R070350
Ideal chemistry: Ag_7_AsS_6_
Locality: North Lily Mine, East Tintic District, East Tintic Mts, Utah County, Utah, USA
Source: Michael Scott
Description: Steel-grey fine-grained loose aggregates, co-type sample
Measured chemistry: (Ag_6.94_Cu_0.04_Fe_0.01_)_Σ6.99_(As_0.87_Sb_0.13_)_Σ1.00_S_6.01_
Raman shift (cm-1)	intensity
164.607	0
167.5	7.4109
170.393	15.7339
173.286	2.06725
176.178	3.12341
179.071	12.3816
181.964	6.12596
184.856	3.36101
187.749	18.0647
190.642	13.908
193.535	16.5003
196.427	23.4357
199.32	25.9199
202.213	17.6521
205.105	19.2014
207.998	22.9282
210.891	23.2221
213.783	34.7657
216.676	29.321
219.569	40.4816
222.462	21.6518
225.354	34.8154
228.247	35.484
231.14	27.1819
234.032	23.3701
236.925	34.7647
239.818	34.9627
242.71	35.3761
245.603	37.5276
248.496	34.3786
251.388	33.0737
254.281	41.91
257.174	34.2512
260.067	28.1869
262.959	34.5136
265.852	31.2006
268.745	11.7452
271.637	34.5761
274.53	16.7128
277.423	24.675
280.315	27.1151
283.208	29.0422
286.101	14.2197
288.994	19.9866
291.886	16.3368
294.779	12.7989
297.672	15.6416
300.564	33.0047
303.457	19.1244
306.35	8.38553
309.243	1.9463
312.135	2.23587
315.028	4.03055
317.921	3.34045
320.813	14.0489
323.706	14.9056
326.599	11.3515
329.491	18.2128
332.384	15.7058
335.277	9.72426
338.17	4.60616
341.062	18.3051
343.955	8.21425
346.848	18.0585
349.74	31.7349
352.633	14.3808
355.526	37.127
358.418	40.3616
361.311	41.084
364.204	39.4928
367.097	51.854
369.989	41.697
372.882	42.256
375.775	41.2524
378.667	33.0196
381.56	16.0069
384.453	8.95165
387.346	11.5726
390.238	10.2337
393.131	7.39086
396.024	0.120537
398.916	12.1792
401.809	0.669327
404.702	3.33479
407.594	0.69632
410.487	6.99458
413.38	10.4415
416.272	14.3201
419.165	10.3925
422.058	1.22667
424.951	13.274
427.843	11.3342
430.736	20.3514
433.629	10.8741
436.521	14.1109
439.414	5.39037
442.307	0.729301
445.2	10.1054
448.092	18.3564
450.985	10.3671
453.878	6.06198
456.77	7.97679
459.663	7.17372
462.556	11.6417
465.448	11.7314
468.341	13.0881
471.234	10.4977
474.127	21.2961
477.019	4.42135
479.912	15.1526
482.805	6.495
485.697	4.19768
488.59	7.50507
491.483	2.32545
494.375	11.8616
497.268	9.54181
500.161	1.66901
503.053	7.77155
505.946	16.7746
508.839	10.3786
511.732	14.6307
514.624	8.31924
517.517	2.55591
520.41	2.73422
523.302	10.6824
526.195	11.3024
529.088	1.60176
531.981	0.100227
534.873	6.99863
537.766	0.8731
540.659	11.1445
543.551	0.710831
546.444	6.22353
549.337	5.02808
552.229	7.0229
555.122	1.04253
558.015	1.84368
560.908	10.7392
563.8	11.683
566.693	8.37788
569.586	11.0551
572.478	19.505
575.371	3.73541
578.264	15.0513
581.156	11.5395
584.049	20.3319
586.942	8.38539
589.835	6.2074
592.727	13.6968
595.62	24.2075
598.513	12.6735
601.405	12.7077
604.298	5.83856
607.191	15.1599
610.083	12.728
612.976	16.4862
615.869	13.1273
618.762	4.46484
621.654	16.5233
624.547	3.15679
627.44	5.05811
630.332	5.61
633.225	28.5557
636.118	15.6187
639.01	15.0636
641.903	1.34691
644.796	26.0803
647.689	25.41
650.581	18.8374
653.474	9.99326
656.367	8.79435
659.259	5.98536
662.152	9.32545
665.045	0.031021
667.938	6.87184
670.83	5.35795
673.723	9.39185
676.616	20.2969
679.508	14.8371
682.401	6.86381
685.294	10.1338
688.186	16.6528
691.079	26.4049
693.972	10.7656
696.865	8.74714
699.757	14.7044
702.65	6.73401
705.543	15.9692
708.435	6.21679
711.328	10.5466
714.221	16.1696
717.113	3.53546
720.006	16.0851
722.899	11.8877
725.792	22.5103
728.684	6.36717
731.577	15.839
734.47	15.6642
737.362	4.23026
740.255	0.657631
743.148	2.45341
746.04	3.76849
748.933	15.5552
751.826	1.71615
754.719	7.8221
757.611	13.3961
760.504	5.54302
763.397	22.7533
766.289	13.5423
769.182	9.72773
772.075	8.67916
774.967	0.006832
777.86	4.70161
780.753	17.7108
783.646	14.0208
786.538	8.83244
789.431	10.6999
792.324	9.59314
795.216	8.32089
798.109	11.9136
801.002	18.1236
803.894	6.69805
806.787	11.0636
809.68	1.01045
812.573	9.9837
815.465	8.19147
818.358	6.8335
821.251	2.42839
824.143	14.1364
827.036	8.83859
829.929	0.947868
832.822	9.52899
835.714	12.7647
838.607	12.7964
841.5	12.0155
844.392	14.8338
847.285	17.6425
850.178	9.69901
853.07	7.0136
855.963	12.232
858.856	8.7711
861.749	21.6814
864.641	11.8846
867.534	11.3662
870.427	14.3702
873.319	11.5042
876.212	0.877476
879.105	16.3287
881.997	5.35258
884.89	10.2188
887.783	9.70874
890.676	22.3197
893.568	15.7906
896.461	12.345
899.354	3.25796
902.246	5.58161
905.139	3.06395
908.032	2.09749
910.924	18.8193
913.817	11.1747
916.71	5.5729
919.602	20.377
922.495	19.0559
925.388	14.3272
928.281	16.4858
931.173	14.3464
934.066	10.8831
936.959	13.1844
939.851	0.41835
942.744	8.02877
945.637	9.73846
948.529	4.48217
951.422	11.0653
954.315	0.057648
957.208	9.96932
960.1	18.8701
962.993	5.94541
965.886	10.3829
968.778	10.6887
971.671	17.472
974.564	12.9369
977.457	14.3647
980.349	8.68545
983.242	14.2918
986.135	13.6216
989.027	11.0131
991.92	5.82328
994.813	7.62455
997.705	1.76561
1000.6	11.6885
1003.49	14.0983
1006.38	12.0404
1009.28	4.87462
1012.17	18.5744
1015.06	11.8909
1017.95	22.4918
1020.85	14.2779
1023.74	7.93025
1026.63	10.7951
1029.53	8.47008
1032.42	8.36356
1035.31	6.23729
1038.2	12.7916
1041.1	16.8165
1043.99	14.6702
1046.88	13.2483
1049.77	6.9099
1052.67	7.03949
1055.56	6.36184
1058.45	15.2775
1061.35	10.1759
1064.24	0.175568
1067.13	11.0043
1070.02	15.4323
1072.92	2.07428
1075.81	13.2162
1078.7	16.5619
1081.59	10.6518
1084.49	21.4971
1087.38	3.63254
1090.27	4.68586
1093.16	17.3975
1096.06	18.0621
1098.95	7.04137
1101.84	25.7359
1104.73	0.505203
1107.63	5.16249
1110.52	5.60487
1113.41	4.00324
1116.31	3.63931
1119.2	11.4601
1122.09	2.43382
1124.98	8.22353
1127.88	9.74443
1130.77	0.985096
1133.66	2.19909
1136.56	2.29961
1139.45	10.551
1142.34	3.71245
1145.23	11.4769
1148.13	5.81098
1151.02	3.50632
1153.91	3.91107
1156.8	14.3369
1159.7	3.16213
1162.59	15.1895
1165.48	14.0814
1168.38	3.96099
1171.27	3.4287
1174.16	22.8798
1177.05	15.7196
1179.95	11.7106
1182.84	4.26079
1185.73	6.11712
1188.62	15.6022
1191.52	11.8086
1194.41	13.9771
1197.3	5.85656
1200.19	11.9475
1203.09	4.29101
1205.98	15.9993
1208.87	12.6398
1211.77	7.92489
1214.66	15.0384
1217.55	7.06991
1220.44	4.34503
1223.34	8.00983
1226.23	8.85907
1229.12	9.064
1232.01	10.3573
1234.91	15.6283
1237.8	0.188766
1240.69	21.8417
1243.59	15.8491
1246.48	15.8852
1249.37	14.6396
1252.26	6.17251
1255.16	8.18274
1258.05	18.6421
1260.94	16.9468
1263.83	12.4837
1266.73	13.9674
1269.62	18.7472
1272.51	29.8127
1275.4	15.23
1278.3	16.0767
1281.19	15.1649
1284.08	24.4506
1286.98	13.8501
1289.87	14.1269
1292.76	8.78733
1295.65	12.063
1298.55	22.1413
1301.44	18.4014
1304.33	14.371
1307.22	17.5663
1310.12	15.3161
1313.01	33.0555
