Measurement: Raman, 785 nm, unoriented, Raman Data Processed
Mineral: Billingsleyite
Rruff sample: R070350
Ideal chemistry: Ag_7_AsS_6_
Locality: North Lily Mine, East Tintic District, East Tintic Mts, Utah County, Utah, USA
Source: Michael Scott
Description: Steel-grey fine-grained loose aggregates, co-type sample
Measured chemistry: (Ag_6.94_Cu_0.04_Fe_0.01_)_Σ6.99_(As_0.87_Sb_0.13_)_Σ1.00_S_6.01_
Raman shift (cm-1)	intensity
171.16	0
174.052	1.41934
176.945	5.45395
179.838	12.2754
182.73	5.53427
185.623	20.1334
188.516	0.081543
191.408	0.47049
194.301	7.9919
197.194	8.78882
200.087	16.596
202.979	23.5527
205.872	13.0307
208.765	20.1428
211.657	16.5581
214.55	10.1293
217.443	5.97516
220.335	19.5197
223.228	28.6735
226.121	8.93678
229.013	24.9386
231.906	15.4823
234.799	15.8442
237.692	10.1901
240.584	13.0996
243.477	9.60809
246.37	17.7103
249.262	11.6506
252.155	8.69035
255.048	23.5436
257.941	19.7795
260.833	13.1755
263.726	8.87554
266.619	20.4077
269.511	9.15919
272.404	16.0637
275.297	19.0681
278.19	7.85072
281.082	9.54599
283.975	9.80379
286.868	9.22006
289.76	4.91372
292.653	15.3767
295.546	19.8436
298.438	7.3547
301.331	5.23351
304.224	16.4831
307.116	19.0222
310.009	5.0266
312.902	6.06451
315.795	9.98215
318.687	8.18582
321.58	9.66393
324.473	2.8336
327.365	5.60487
330.258	8.36079
333.151	14.4841
336.043	5.59769
338.936	14.4764
341.829	1.79351
344.721	19.2732
347.614	12.11
350.507	12.2587
353.4	15.5655
356.292	10.0678
359.185	36.3688
362.078	18.6777
364.97	24.119
367.863	11.7002
370.756	14.0305
373.649	9.26583
376.541	12.0709
379.434	11.2968
382.327	8.7683
385.219	6.1262
388.112	20.3625
391.005	3.73654
393.897	13.1474
396.79	11.156
399.683	15.2879
402.575	16.9334
405.468	6.22458
408.361	9.76148
411.254	20.4607
414.146	5.61668
417.039	9.34061
419.932	5.14468
422.824	2.41415
425.717	5.53146
428.61	11.9926
431.502	12.7002
434.395	13.4404
437.288	24.1405
440.181	15.3161
443.073	16.0692
445.966	22.5381
448.859	5.65637
451.751	8.24358
454.644	4.09034
457.537	5.94611
460.43	14.6612
463.322	4.32922
466.215	7.68335
469.108	7.06741
472	2.70017
474.893	6.66787
477.786	4.9151
480.678	12.7535
483.571	12.9484
486.464	15.5017
489.356	13.1816
492.249	15.5942
495.142	13.851
498.035	9.38088
500.927	13.4778
503.82	2.59781
506.713	8.72939
509.605	6.84269
512.498	5.20808
515.391	5.54362
518.284	8.88343
521.176	2.68425
524.069	14.0856
526.962	4.97092
529.854	15.0184
532.747	15.5634
535.64	0.914494
538.533	9.41852
541.425	5.74041
544.318	1.81408
547.211	7.39518
550.103	15.1961
552.996	8.25039
555.889	15.8597
558.781	15.2097
561.674	14.8999
564.567	14.5652
567.459	27.5147
570.352	4.2061
573.245	23.9568
576.138	11.6951
579.03	21.5833
581.923	3.9971
584.816	10.5583
587.708	8.4672
590.601	7.10539
593.494	3.67383
596.386	29.0022
599.279	18.7405
602.172	8.22802
605.064	17.7776
607.957	18.4919
610.85	15.861
613.743	13.2048
616.635	13.2141
619.528	19.3
622.421	6.354
625.313	17.7009
628.206	2.03226
631.099	0.052273
633.991	17.5587
636.884	5.55785
639.777	13.496
642.67	16.8254
645.562	13.0194
648.455	14.5292
651.348	26.3614
654.24	10.2211
657.133	13.129
660.026	5.40167
662.918	17.4858
665.811	0.812679
668.704	7.04164
671.597	13.6701
674.489	12.9933
677.382	10.4434
680.275	16.7712
683.167	25.9556
686.06	19.7221
688.953	15.3375
691.846	6.42025
694.738	6.79904
697.631	14.0371
700.524	5.62567
703.416	8.81506
706.309	0.515469
709.202	13.4088
712.094	11.4802
714.987	7.54082
717.88	14.4222
720.773	5.12294
723.665	0.187859
726.558	4.82503
729.451	19.3762
732.343	15.7374
735.236	12.9827
738.129	17.9002
741.021	14.6832
743.914	7.76461
746.807	4.82553
749.699	2.94847
752.592	7.39764
755.485	3.74404
758.378	6.64029
761.27	10.3731
764.163	3.7152
767.056	7.80485
769.948	14.4341
772.841	10.1527
775.734	20.811
778.626	9.46147
781.519	3.87833
784.412	3.96327
787.305	15.0175
790.197	6.42027
793.09	1.4593
795.983	12.9788
798.875	4.48542
801.768	6.12122
804.661	9.36394
807.553	9.73652
810.446	15.6058
813.339	16.8374
816.232	22.7959
819.124	13.0471
822.017	2.34389
824.91	4.90697
827.802	8.15794
830.695	9.9737
833.588	6.36764
836.481	3.68231
839.373	14.6091
842.266	7.17172
845.159	8.43625
848.051	12.9037
850.944	12.211
853.837	12.8607
856.729	6.00601
859.622	18.1418
862.515	11.5064
865.408	5.79291
868.3	2.80963
871.193	20.5872
874.086	1.6566
876.978	7.80556
879.871	4.54687
882.764	11.8313
885.656	7.93845
888.549	19.3179
891.442	20.5786
894.335	8.77961
897.227	10.8518
900.12	9.69435
903.013	7.90908
905.905	9.62369
908.798	2.62227
911.691	11.2374
914.583	7.60009
917.476	3.16213
920.369	7.9122
923.261	5.12787
926.154	8.56378
929.047	1.62615
931.94	19.6243
934.832	9.52442
937.725	10.6531
940.618	5.18422
943.51	7.21003
946.403	2.37411
949.296	9.42281
952.188	0.847624
955.081	2.21289
957.974	13.543
960.867	8.67553
963.759	24.4588
966.652	14.7365
969.545	16.7305
972.437	16.8094
975.33	8.98445
978.223	12.7401
981.115	14.1045
984.008	7.5717
986.901	6.76663
989.794	4.93682
992.686	13.9033
995.579	12.3904
998.472	13.6429
1001.36	15.3882
1004.26	4.7845
1007.15	10.6592
1010.04	9.86822
1012.93	10.2051
1015.83	10.3916
1018.72	13.5396
1021.61	8.4919
1024.51	2.55677
1027.4	1.97908
1030.29	1.77268
1033.18	22.0906
1036.08	7.93403
1038.97	10.9276
1041.86	10.1888
1044.76	16.553
1047.65	8.93242
1050.54	14.1186
1053.43	19.1844
1056.33	18.09
1059.22	13.0088
1062.11	3.37037
1065	8.4086
1067.9	8.1074
1070.79	11.3407
1073.68	17.4207
1076.58	9.3786
1079.47	23.6871
1082.36	18.5956
1085.25	19.7254
1088.14	4.65877
1091.04	12.825
1093.93	7.96437
1096.82	5.38004
1099.72	0.527422
1102.61	10.8404
1105.5	5.97507
1108.39	25.0883
1111.29	9.73199
1114.18	5.34425
1117.07	11.7138
1119.96	17.2205
1122.86	14.4727
1125.75	12.6001
1128.64	8.67076
1131.54	10.8738
1134.43	10.6709
1137.32	11.5142
1140.21	12.6134
1143.11	13.1738
1146	10.0255
1148.89	16.6835
1151.79	7.9162
1154.68	21.4269
1157.57	7.47466
1160.46	22.5005
1163.36	20.2145
1166.25	14.3352
1169.14	9.41548
1172.03	8.68914
1174.93	6.04973
1177.82	6.10391
1180.71	15.0198
1183.6	17.9825
1186.5	26.0737
1189.39	15.4384
1192.28	15.4901
1195.17	19.2668
1198.07	6.45287
1200.96	12.5461
1203.85	0.805077
1206.75	1.71955
1209.64	8.72846
1212.53	3.61169
1215.42	14.9652
1218.32	13.9854
1221.21	16.1295
1224.1	19.4808
1226.99	15.7944
1229.89	9.75765
1232.78	2.83861
1235.67	18.222
1238.57	17.7294
1241.46	3.89291
