Measurement: Raman, 532 nm, unoriented, Raman Data Processed
Mineral: Biphosphammite
Rruff sample: R070411
Ideal chemistry: H_2_(N^3-^H_4_)PO_4_
Locality: Mason Bat Cave, Mason County, Texas, USA
Source: Michael Scott
Description: Pale brown aggregate associated with white hair-like fibers
Raman shift (cm-1)	intensity
178.589	0
181.482	8.61035
184.374	0.855957
187.267	36.1616
190.16	13.7622
193.052	65.3804
195.945	39.8999
198.838	43.1616
201.731	86.3804
204.623	80.7559
207.516	74.8711
210.409	101.21
213.301	123.125
216.194	69.3872
219.087	141.491
221.979	83.1846
224.872	26.7236
227.765	69.731
230.657	99.9292
233.55	76.1592
236.443	103.333
239.336	66.7373
242.228	133.25
245.121	81.2061
248.014	31.2949
250.906	55.7134
253.799	82.5698
256.692	42.3218
259.584	80.2837
262.477	89.8062
265.37	31.4961
268.263	52.144
271.155	58.4111
274.048	54.5767
276.941	44.6982
279.833	46.9321
282.726	39.9214
285.619	64.4678
288.512	44.6826
291.404	105.403
294.297	85.8203
297.19	91.7173
300.082	53.2661
302.975	61.3755
305.868	38.7539
308.76	45.9072
311.653	46.835
314.546	47.7554
317.438	52.9175
320.331	34.2251
323.224	52.5132
326.117	53.415
329.009	1.63428
331.902	20.459
334.795	72.103
337.687	32.4937
340.58	53.3813
343.473	56.0772
346.365	30.9365
349.258	24.1006
352.151	25.8516
355.044	75.4995
357.936	45.669
360.829	67.3335
363.722	4.8667
366.614	63.3174
369.507	0.503906
372.4	70.7642
375.293	45.2832
378.185	48.3418
381.078	37.6924
383.971	84.6401
386.863	69.4971
389.756	51.4717
392.649	14.0156
395.541	83.9653
398.434	22.0771
401.327	16.561
404.219	11.563
407.112	71.0762
410.005	42.0913
412.898	7.42725
415.79	26.2969
418.683	65.021
421.576	84.1426
424.469	47.5225
427.361	55.3726
430.254	98.6133
433.147	46.7178
436.039	47.9228
438.932	42.0986
441.825	84.2627
444.717	71.7656
447.61	11.8096
450.503	78.4932
453.396	69.7754
456.288	46.0107
459.181	87.3389
462.074	86.0635
464.966	106.326
467.859	109.842
470.752	59.4023
473.644	46.6836
476.537	48.9258
479.43	116.447
482.322	90.625
485.215	79.4814
488.108	121.823
491.001	78.0234
493.893	59.9853
496.786	94.3945
499.679	33.9346
502.571	66.668
505.464	15.2685
508.357	71.2647
511.25	62.623
514.142	100.736
517.035	16.4844
519.928	22.4619
522.82	43.6895
525.713	12.0918
528.606	44.167
531.498	56.4141
534.391	33.1318
537.284	84.5576
540.177	49.46
543.069	66.4522
545.962	1.23535
548.855	39.4199
551.747	66.0137
554.64	35.4639
557.533	21.499
560.425	14.3408
563.318	2.45898
566.211	51.706
569.104	39.0586
571.996	66.8535
574.889	25.2744
577.782	137.208
580.674	27.3145
583.567	87.4287
586.46	36.1289
589.352	69.6328
592.245	70.8184
595.138	80.374
598.031	53.6221
600.923	6.46582
603.816	1.125
606.709	58.9668
609.601	98.417
612.494	27.4688
615.387	52.4971
618.279	75.8047
621.172	72.7031
624.065	104.51
626.958	102.577
629.85	99.2324
632.743	70.4697
635.636	80.6025
638.528	132.683
641.421	124.014
644.314	132.176
647.207	204.525
650.099	218.756
652.992	131.251
655.885	85.4756
658.777	141.448
661.67	144.533
664.563	123.278
667.455	84.3086
670.348	144.158
673.241	80.5908
676.134	115.685
679.026	135.164
681.919	40.8887
684.812	142.955
687.704	19.4941
690.597	50.5488
693.49	78.1728
696.382	62.582
699.275	90.6231
702.168	87.3613
705.061	34.2295
707.953	19.0166
710.846	104.166
713.739	19.3584
716.631	41.3389
719.524	22.6289
722.417	19.6924
725.309	6.17188
728.202	30.8213
731.095	50.6777
733.987	121.64
736.88	50.1426
739.773	5.5166
742.666	86.418
745.558	104.11
748.451	36.6953
751.344	22.4219
754.236	64.1982
757.129	90.4043
760.022	37.6611
762.915	1.37793
765.807	18.335
768.7	113.498
771.593	59.6367
774.485	6.52637
777.378	7.54102
780.271	93.082
783.163	50.3076
786.056	115.551
788.949	6.25977
791.842	80.2871
794.734	29.6494
797.627	14.2793
800.52	85.8232
803.412	28.9287
806.305	32.6914
809.198	18.5664
812.091	65.2705
814.983	108.531
817.876	75.7598
820.769	114.611
823.661	85.7061
826.554	32.54
829.447	67.291
832.339	47.7363
835.232	47.1084
838.125	38.6416
841.018	98.0625
843.91	55.6816
846.803	40.2051
849.696	72.1865
852.588	35.7275
855.481	58.0654
858.374	88.4277
861.266	45.0879
864.159	3.02344
867.052	87.9658
869.944	127.968
872.837	115.914
875.73	91.4082
878.623	46.6709
881.515	109.254
884.408	45.3047
887.301	89.0508
890.193	105.947
893.086	107.576
895.979	40.9268
898.871	19.4092
901.764	56.3457
904.657	8.64062
907.55	131.932
910.442	149.995
913.335	31.8125
916.228	33.6455
919.12	49.7734
922.013	7.47656
924.906	78.3525
927.798	89.0166
930.691	75.3965
933.584	150.685
936.477	50.7315
939.369	107.425
942.262	70.4277
945.155	64.3057
948.047	49.2891
950.94	99.4785
953.833	132.244
956.726	7.82715
959.618	6.44922
962.511	112.401
965.404	94.9033
968.296	80.2002
971.189	53.9785
974.082	151.406
976.974	85.5166
979.867	144.465
982.76	13.8203
985.653	44.2734
988.545	78.293
991.438	26.7031
994.331	91.8779
997.223	78.3184
1000.12	105.379
1003.01	51.1123
1005.9	62.9053
1008.79	96.0391
1011.69	0.457031
1014.58	108.908
1017.47	94.2637
1020.37	190.876
1023.26	91.8467
1026.15	110.882
1029.04	29.0176
1031.94	68.7647
1034.83	65.5
1037.72	86.2461
1040.61	123.206
1043.51	13.8242
1046.4	170.231
1049.29	94.4336
1052.18	49.6162
1055.08	58.5762
1057.97	92.8721
1060.86	101.962
1063.76	29.2715
1066.65	120.171
1069.54	65.6231
1072.43	16.3301
1075.33	69.4482
1078.22	100.245
1081.11	50.169
1084	50.3789
1086.9	150.546
1089.79	40.3496
1092.68	138.632
1095.58	141.888
1098.47	73.1572
1101.36	80.2031
1104.25	77.7842
1107.15	28.125
1110.04	131.887
1112.93	49.4717
1115.82	4.31641
1118.72	15.5977
1121.61	18.9463
1124.5	76.9697
1127.39	130.835
1130.29	100.116
1133.18	125.055
1136.07	16.4541
1138.97	67.2822
1141.86	79.2861
1144.75	15.8232
1147.64	29.3711
1150.54	127.578
1153.43	7.85156
1156.32	136.411
1159.21	42.8496
1162.11	21.0742
1165	3.05762
1167.89	53.3193
1170.79	88.5117
1173.68	103.355
1176.57	65.1904
1179.46	36.9522
1182.36	133.004
1185.25	105.993
1188.14	76.5322
1191.03	141.444
1193.93	12.29
1196.82	118.623
1199.71	60.2178
1202.61	127.093
1205.5	1.875
1208.39	91.418
1211.28	105.213
1214.18	2.74219
1217.07	44.8037
1219.96	101.424
1222.85	78.4951
1225.75	27.3076
1228.64	66.9434
1231.53	24.2109
1234.42	64.2559
1237.32	42.5185
1240.21	70.6143
1243.1	104.58
1246	53.207
1248.89	168.464
1251.78	107.801
1254.67	197.08
1257.57	104.103
1260.46	59.8389
1263.35	173.166
1266.24	20.165
1269.14	154.461
1272.03	116.352
1274.92	76.1094
1277.82	190.408
1280.71	142.566
1283.6	82.0059
1286.49	135.445
1289.39	51.0781
1292.28	63.8535
1295.17	148.393
1298.06	73.3438
1300.96	135.076
1303.85	1.59961
1306.74	39.7578
