Measurement: Raman, 785 nm, unoriented, Raman Data Processed
Mineral: Biphosphammite
Rruff sample: R070411
Ideal chemistry: H_2_(N^3-^H_4_)PO_4_
Locality: Mason Bat Cave, Mason County, Texas, USA
Source: Michael Scott
Description: Pale brown aggregate associated with white hair-like fibers
Raman shift (cm-1)	intensity
215.996	0
218.889	16.2124
221.782	24.3594
224.674	45.977
227.567	6.79394
230.46	5.81909
233.353	21.7415
236.245	35.5059
239.138	44.635
242.031	45.7263
244.923	59.9109
247.816	43.5789
250.709	29.3804
253.601	12.1411
256.494	52.7148
259.387	49.5151
262.28	70.7993
265.172	54.8386
268.065	47.3257
270.958	62.5859
273.85	48.3767
276.743	23.3023
279.636	47.981
282.529	2.69482
285.421	61.5427
288.314	64.9846
291.207	69.3408
294.099	60.5884
296.992	8.27881
299.885	57.2568
302.777	72.3481
305.67	37.9028
308.563	59.896
311.455	70.9824
314.348	20.2544
317.241	73.1167
320.134	52.3467
323.026	53.2227
325.919	33.2231
328.812	58.957
331.704	106.581
334.597	86.563
337.49	53.6753
340.382	58.02
343.275	54.2949
346.168	19.02
349.061	78.8096
351.953	47.0527
354.846	84.1777
357.739	35.3179
360.631	90.2734
363.524	57.3413
366.417	9.88184
369.31	10.8584
372.202	1.8584
375.095	77.8149
377.988	46.4639
380.88	23.0635
383.773	20.2358
386.666	48.2749
389.558	29.8179
392.451	82.8286
395.344	37.811
398.236	37.3023
401.129	43.4966
404.022	59.229
406.915	28.1709
409.807	58.5273
412.7	34.0005
415.593	51.9145
418.485	24.6743
421.378	34.7827
424.271	6.37256
427.163	40.3174
430.056	32.437
432.949	45.0913
435.842	1.61133
438.734	5.24609
441.627	40.6143
444.52	32.2368
447.412	26.4648
450.305	4.94385
453.198	68.2427
456.091	64.813
458.983	77.541
461.876	107.22
464.769	103.291
467.661	138.64
470.554	53.6997
473.447	64.9502
476.339	64.8774
479.232	60.0459
482.125	0.493652
485.017	12.5542
487.91	23.2568
490.803	40.9507
493.696	5.646
496.588	20.7441
499.481	14.9082
502.374	21.7168
505.266	10.0986
508.159	21.2998
511.052	69.8291
513.944	2.95068
516.837	75.6211
519.73	6.5166
522.623	53.7358
525.515	32.1435
528.408	50.6143
531.301	36.9297
534.193	65.355
537.086	0.996582
539.979	61.752
542.871	31.5913
545.764	10.73
548.657	11.3438
551.55	1.96191
554.442	25.3481
557.335	73.6665
560.228	35.9219
563.12	51.6467
566.013	58.5413
568.906	9.57178
571.798	69.6643
574.691	30.167
577.584	31.8686
580.477	69.6216
583.369	51.1121
586.262	36.1785
589.155	40.2256
592.047	5.96655
594.94	38.1973
597.833	56.2422
600.726	35.9824
603.618	33.6311
606.511	62.4348
609.404	44.6606
612.296	4.8689
615.189	43.5154
618.082	28.4597
620.974	40.7537
623.867	32.6804
626.76	21.5964
629.653	23.6892
632.545	46.7539
635.438	43.2981
638.331	40.5713
641.223	31.4846
644.116	62.7903
647.009	39.0281
649.901	35.0242
652.794	33.3054
655.687	22.7095
658.58	59.8643
661.472	16.0308
664.365	22.1526
667.258	5.08276
670.15	58.5144
673.043	44.4812
675.936	78.0481
678.828	89.6814
681.721	77.7676
684.614	17.8294
687.506	37.2986
690.399	24.1802
693.292	63.654
696.185	16.1768
699.077	49.8359
701.97	49.5625
704.863	79.346
707.755	52.8494
710.648	55.0789
713.541	81.7185
716.433	85.1365
719.326	7.85571
722.219	54.794
725.112	67.855
728.004	13.5122
730.897	80.5083
733.79	7.55566
736.682	41.9673
739.575	60.2835
742.468	42.831
745.361	45.8904
748.253	48.2219
751.146	47.7773
754.039	22.3728
756.931	86.3799
759.824	64.5664
762.717	44.4893
765.609	51.6567
768.502	36.0078
771.395	40.5117
774.288	35.5107
777.18	62.0117
780.073	18.1926
782.966	33.1079
785.858	28.7393
788.751	25.3247
791.644	29.8782
794.536	37.9971
797.429	66.8489
800.322	64.0938
803.215	43.3755
806.107	68.2744
809	3.51196
811.893	6.68457
814.785	16.8433
817.678	46.8701
820.571	42.2256
823.463	20.1682
826.356	25.5764
829.249	65.1562
832.141	22.9155
835.034	30.8218
837.927	34.6238
840.82	47.833
843.712	56.7998
846.605	48.2297
849.498	19.1306
852.39	11.1065
855.283	19.8806
858.176	58.3657
861.068	11.7908
863.961	40.3603
866.854	29.2849
869.747	50.3655
872.639	26.3967
875.532	20.7688
878.425	42.4028
881.317	48.4192
884.21	49.5659
887.103	38.706
889.995	6.875
892.888	53.8091
895.781	23.7529
898.674	53.5962
901.566	6.14209
904.459	56.7332
907.352	26.3506
910.244	67.3828
913.137	63.2136
916.03	34.6152
918.923	11.8982
921.815	20.7764
924.708	52.071
927.601	41.2073
930.493	37.6714
933.386	54.5698
936.279	6.58032
939.171	58.0752
942.064	34.669
944.957	44.4175
947.85	11.7896
950.742	67.7925
953.635	43.4016
956.528	93.6653
959.42	22.5239
962.313	63.2053
965.206	26.7717
968.098	25.6882
970.991	45.2439
973.884	19.353
976.777	27.8628
979.669	27.3726
982.562	46.0969
985.455	58.2241
988.347	44.9812
991.24	92.3154
994.133	43.7988
997.025	4.10938
999.918	44.6155
1002.81	13.3852
1005.7	5.73413
1008.6	25.135
1011.49	15.22
1014.38	48.7112
1017.27	48.7949
1020.17	19.4949
1023.06	28.7373
1025.95	30.0207
1028.85	61.0359
1031.74	37.0715
1034.63	0.591064
1037.52	34.366
1040.42	36.2898
1043.31	33.3967
1046.2	6.81421
1049.09	15.1389
1051.99	7.1106
1054.88	7.12646
1057.77	59.0696
1060.66	33.0867
1063.56	57.2944
1066.45	5.30859
1069.34	58.8513
1072.24	50.5818
1075.13	13.4778
1078.02	44.4485
1080.91	51.4282
1083.81	29.2095
1086.7	6.58691
1089.59	14.207
1092.48	51.9377
1095.38	0.864258
1098.27	55.7502
1101.16	67.3106
1104.06	27.7827
1106.95	30.2127
1109.84	60.4507
1112.73	20.9402
1115.63	46.8308
1118.52	44.4514
1121.41	16.1001
1124.3	41.3391
1127.2	69.6497
1130.09	42.2498
1132.98	46.8499
1135.88	15.4211
1138.77	61.0227
1141.66	16.7583
1144.55	31.3865
1147.45	80.7087
1150.34	10.5198
1153.23	12.9553
1156.12	26.6262
1159.02	44.2715
1161.91	21.3867
1164.8	8.60645
1167.69	32.801
1170.59	72.1572
1173.48	47.9631
1176.37	39.9998
1179.27	33.2959
1182.16	47.8269
1185.05	12.9351
1187.94	59.8103
1190.84	53.3069
1193.73	69.9263
1196.62	26.2783
1199.51	38.7007
1202.41	5.12231
1205.3	56.1438
1208.19	28.6184
1211.09	12.4993
1213.98	66.2593
1216.87	43.2451
1219.76	24.0664
1222.66	55.3565
1225.55	39.9028
1228.44	2.07642
1231.33	9.5498
