Measurement: Raman, 780 nm, unoriented, Raman Data Processed
Mineral: Bisbeeite
Rruff sample: R060317
Ideal chemistry: (Cu,Mg)SiO_3_nH_2_O
Locality: Shangulowe, Katanga Province, Democratic Republic of Congo
Source: Herb Obodda
Description: Light blue granular massive
Measured chemistry: (Cu_0.99_Mg_0.01_)_Σ=1_Si_1.00_O_3_·0.40H_2_O
Raman shift (cm-1)	intensity
117.567	0
120.942	1.62982
124.317	0.70343
127.692	4.20471
131.067	4.38141
134.442	3.34112
137.816	5.85407
141.191	5.19324
144.566	7.90161
147.941	7.35815
151.316	9.7215
154.69	7.6496
158.065	6.54022
161.44	4.27649
164.815	3.76331
168.19	2.11096
171.565	1.59851
174.939	2.27698
178.314	1.94269
181.689	3.12817
185.064	7.75641
188.439	1.83698
191.814	6.16303
195.188	9.021
198.563	9.22278
201.938	8.83154
205.313	10.0587
208.688	9.54065
212.062	9.54059
215.437	8.21069
218.812	7.02386
222.187	5.56323
225.562	10.0305
228.936	12.0682
232.311	3.20337
235.686	8.42133
239.061	5.1203
242.436	3.6983
245.811	4.39105
249.185	1.32812
252.56	3.33777
255.935	1.47473
259.31	5.27185
262.685	1.80475
266.059	6.64575
269.434	2.3327
272.809	1.58276
276.184	3.33038
279.559	0.830017
282.933	1.11359
286.308	1.77142
289.683	6.62653
293.058	1.13562
296.433	1.00006
299.808	3.57849
303.182	0.036682
306.557	2.67749
309.932	1.82294
313.307	0.697266
316.682	6.15448
320.057	4.1471
323.431	2.76221
326.806	4.83899
330.181	7.3855
333.556	0.836914
336.931	1.30804
340.305	5.20087
343.68	4.83899
347.055	1.96826
350.43	2.90375
353.805	3.65076
357.18	4.29919
360.554	2.40729
363.929	1.26508
367.304	2.69897
370.679	4.94788
374.054	2.10614
377.428	1.41687
380.803	2.22418
384.178	2.6687
387.553	4.09283
390.928	4.84766
394.303	0.498596
397.677	2.49707
401.052	8.02277
404.427	3.62817
407.802	4.87
411.177	2.88513
414.551	2.35803
417.926	6.65692
421.301	5.15381
424.676	8.57104
428.051	11.013
431.425	8.5329
434.8	10.8408
438.175	7.26996
441.55	10.1008
444.925	7.59125
448.3	6.33087
451.674	6.48431
455.049	4.42194
458.424	4.28931
461.799	5.89539
465.174	5.78766
468.548	3.59222
471.923	4.94556
475.298	1.98724
478.673	2.32068
482.048	2.26697
485.423	4.34161
488.797	3.73315
492.172	6.05164
495.547	2.42273
498.922	0.715881
502.297	4.95569
505.671	5.81653
509.046	3.77441
512.421	3.71539
515.796	0.893555
519.171	3.56146
522.545	0.887573
525.92	2.53876
529.295	3.95337
532.67	1.0766
536.045	5.09314
539.42	3.54346
542.794	0.723083
546.169	1.76953
549.544	1.60596
552.919	1.66321
556.294	2.47412
559.668	2.38361
563.043	3.47809
566.418	0.560059
569.793	3.42621
573.168	0.505127
576.543	4.93127
579.917	2.66962
583.292	1.59955
586.667	2.39966
590.042	2.8493
593.417	5.28528
596.792	0.106873
600.166	4.65234
603.541	2.37512
606.916	3.14612
610.291	3.00708
613.666	5.26825
617.04	4.28101
620.415	2.24554
623.79	3.00006
627.165	6.86737
630.54	6.87567
633.915	11.4356
637.289	9.58954
640.664	13.8163
644.039	18.4096
647.414	12.7859
650.789	17.2078
654.163	13.1414
657.538	18.2401
660.913	17.109
664.288	15.6838
667.663	15.337
671.038	15.4872
674.412	10.2826
677.787	7.7912
681.162	9.7406
684.537	5.8382
687.912	4.57556
691.286	2.7276
694.661	4.5177
698.036	1.57983
701.411	1.63983
704.786	1.79584
708.16	1.28967
711.535	5.13702
714.91	3.7558
718.285	6.87854
721.66	4.71216
725.035	5.73761
728.409	2.83899
731.784	6.05139
735.159	2.3952
738.534	4.20471
741.909	4.8529
745.284	3.81995
748.658	2.80896
752.033	6.76099
755.408	3.4444
758.783	5.28711
762.158	7.35425
765.532	3.73584
768.907	3.26764
772.282	5.0979
775.657	5.9303
779.032	3.63849
782.407	3.59845
785.781	3.79694
789.156	4.65991
792.531	5.65314
795.906	4.41858
799.281	4.76502
802.655	2.57202
806.03	1.17804
809.405	1.60113
812.78	2.43079
816.155	5.54211
819.529	3.9342
822.904	2.71423
826.279	3.36462
829.654	0.486511
833.029	0.512451
836.404	1.82867
839.778	2.52246
843.153	3.99085
846.528	3.92926
849.903	0.653503
853.278	4.30475
856.653	3.82269
860.027	2.9765
863.402	7.00018
866.777	4.19745
870.152	0.95636
873.527	4.86847
876.901	3.80768
880.276	2.89008
883.651	5.10309
887.026	6.24097
890.401	0.107727
893.775	7.82581
897.15	0.30719
900.525	0.856506
903.9	2.13769
907.275	4.23425
910.649	1.44074
914.024	2.10248
917.399	6.12671
920.774	11.8635
924.149	3.90271
927.524	6.828
930.898	3.99243
934.273	9.06714
937.648	7.36145
941.023	10.625
944.398	8.56653
947.773	9.17462
951.147	8.82867
954.522	10.8057
957.897	4.49927
961.272	4.80371
964.647	8.50775
968.021	7.69342
971.396	4.63898
974.771	4.85254
978.146	1.1012
981.521	4.52936
984.895	3.16644
988.27	4.20276
991.645	4.86865
995.02	9.73413
998.395	4.94934
1001.77	1.99115
1005.14	1.17084
1008.52	2.48181
1011.89	3.32611
1015.27	4.74707
1018.64	6.67242
1022.02	9.99615
1025.39	7.31006
1028.77	5.06574
1032.14	10.8724
1035.52	7.50702
1038.89	9.25915
1042.27	9.02753
1045.64	7.20746
1049.02	12.7792
1052.39	6.8692
1055.77	10.0648
1059.14	10.4994
1062.52	9.98907
1065.89	8.39203
1069.27	10.3601
1072.64	15.4042
1076.02	11.481
1079.39	8.3493
1082.77	6.59399
1086.14	4.61114
1089.52	9.60028
1092.89	8.65491
1096.27	2.07495
1099.64	0.692017
1103.01	1.74058
1106.39	0.026733
1109.76	2.28558
1113.14	4.88971
1116.51	0.528442
1119.89	2.47766
1123.26	4.49585
1126.64	3.18188
1130.01	5.68561
1133.39	6.0907
1136.76	7.93097
1140.14	2.27777
1143.51	5.55603
1146.89	10.045
1150.26	6.30072
1153.64	6.25671
1157.01	7.25806
1160.39	5.46551
1163.76	8.63293
1167.14	7.3327
1170.51	6.07031
1173.88	5.53888
1177.26	6.84644
1180.63	9.32495
1184.01	6.75592
1187.38	9.93341
1190.76	9.04669
1194.13	3.65961
1197.51	7.06879
1200.88	8.27387
1204.26	6.08313
1207.63	5.97992
1211.01	3.18958
1214.38	3.22406
1217.76	3.97461
1221.13	1.48633
1224.51	2.75592
1227.88	4.12506
1231.26	3.08887
1234.63	1.07428
1238.01	3.50732
1241.38	0.760315
1244.76	1.15485
1248.13	3.7724
1251.51	3.46622
1254.88	3.70795
1258.26	6.76306
1261.63	11.1983
1265.01	8.94623
1268.38	7.00751
1271.76	2.81818
1275.13	6.7782
1278.51	6.06494
1281.88	5.32086
1285.25	0.418335
