Measurement: Raman, 780 nm, unoriented, Raman Data Processed
Mineral: Bismuthinite
Rruff sample: R070617
Ideal chemistry: Bi^3+^_2_S^2-^_3_
Locality: Hachita, Grants County, New Mexico, USA
Source: James Shigley
Description: Steel-gray metallic massive lamellar, associated with quartz.
Raman shift (cm-1)	intensity
133.157	0
136.05	82.9287
138.942	36.2607
141.835	53.6094
144.728	7.24902
147.62	102.835
150.513	183.965
153.406	257.156
156.298	222.878
159.191	255.516
162.084	231.781
164.976	393.09
167.869	344.99
170.762	365.933
173.655	509.019
176.547	493.068
179.44	480.959
182.333	480.591
185.225	542.876
188.118	587.861
191.011	626.771
193.904	722.807
196.796	1026.2
199.689	1081.37
202.582	1444.45
205.474	1677.43
208.367	1933.6
211.26	2305.97
214.153	2664.56
217.045	3131.38
219.938	3316.99
222.831	3655.69
225.723	4053.05
228.616	4364.93
231.509	4411.44
234.401	4619.13
237.294	4594.98
240.187	4589.15
243.079	4627.11
245.972	4360.34
248.865	4177.88
251.758	3677.31
254.65	3195.82
257.543	2727.62
260.436	2147.26
263.328	1674.63
266.221	1467.75
269.114	1068.84
272.006	858.221
274.899	688.583
277.792	472.943
280.685	365.231
283.577	307.435
286.47	166.833
289.363	102.705
292.255	33.9932
295.148	15.5259
298.041	55.7852
300.933	27.1538
303.826	10.1099
306.719	21.7485
309.611	17.1309
312.504	28.5884
315.397	5.23828
318.29	1.03174
321.182	8.26416
324.075	6.13379
326.968	17.398
329.86	31.0073
332.753	65.6856
335.646	49.1577
338.538	167.898
341.431	181.913
344.324	142.275
347.217	204.628
350.109	148.853
353.002	269.315
355.895	216.596
358.787	231.295
361.68	334.365
364.573	314.687
367.466	274.12
370.358	217.303
373.251	300.46
376.144	250.27
379.036	216.13
381.929	213.318
384.822	226.541
387.714	107.512
390.607	152.056
393.5	220.565
396.392	190.887
399.285	139.863
402.178	201.597
405.071	115.192
407.963	98.9653
410.856	170.647
413.749	161.193
416.641	145.008
419.534	140.06
422.427	175.316
425.32	141.126
428.212	229.109
431.105	232.503
433.998	183.383
436.89	88.9106
439.783	94.3711
442.676	75.4868
445.568	185.579
448.461	33.1103
451.354	47.5303
454.247	151.049
457.139	39.1138
460.032	53.4629
462.925	164.583
465.817	106.457
468.71	53.8726
471.603	3.59863
474.495	22.0093
477.388	18.9814
480.281	22.8779
483.173	11.4536
486.066	125.446
488.959	105.249
491.852	74.8521
494.744	62.8457
497.637	113.413
500.53	70.0723
503.422	18.3696
506.315	101.424
509.208	29.9624
512.101	62.666
514.993	142.416
517.886	100.376
520.779	135.818
523.671	102.672
526.564	81.9453
529.457	94.1743
532.349	121.783
535.242	99.6279
538.135	44.0915
541.028	82.2253
543.92	107.992
546.813	70.8406
549.706	22.377
552.598	121.247
555.491	72.8574
558.384	100.929
561.276	64.8855
564.169	45.8057
567.062	26.8296
569.955	15.3513
572.847	0.651367
575.74	32.0872
578.633	24.5776
581.525	101.543
584.418	116.103
587.311	88.4016
590.203	88.0408
593.096	36.241
595.989	132.415
598.881	126.707
601.774	147.111
604.667	152.684
607.56	113.329
610.452	149.133
613.345	77.9751
616.238	168.275
619.13	60.2112
622.023	125.205
624.916	106.246
627.808	124.706
630.701	109.561
633.594	64.6533
636.487	198.719
639.379	3.89819
642.272	8.92261
645.165	45.5415
648.057	124.689
650.95	95.1316
653.843	67.9937
656.736	29.2158
659.628	10.2366
662.521	73.3933
665.414	102.976
668.306	174.478
671.199	44.5688
674.092	67.8184
676.984	11.5696
679.877	103.511
682.77	63.8508
685.663	130.502
688.555	23.4387
691.448	86.3833
694.341	44.4888
697.233	135.435
700.126	72.53
703.019	111.193
705.911	108.391
708.804	95.2217
711.697	104.456
714.59	66.2449
717.482	174.69
720.375	12.5183
723.268	133.237
726.16	57.7991
729.053	28.5381
731.946	92.6143
734.838	68.6077
737.731	25.5984
740.624	79.8303
743.516	66.0352
746.409	75.7007
749.302	162.579
752.195	49.6416
755.087	35.3276
757.98	96.5876
760.873	130.266
763.765	101.746
766.658	13.636
769.551	89.9937
772.443	11.762
775.336	100.282
778.229	44.3186
781.122	102.513
784.014	106.605
786.907	122.972
789.8	2.29639
792.692	33.9031
795.585	105.174
798.478	57.1621
801.37	72.0703
804.263	113.426
807.156	124.131
810.049	46.9033
812.941	129.197
815.834	81.7519
818.727	122.806
821.619	84.7505
824.512	124.207
827.405	25.4546
830.298	158.259
833.19	107.206
836.083	73.2637
838.976	89.5117
841.868	64.9995
844.761	65.6797
847.654	121.837
850.546	25.9761
853.439	95.3369
856.332	35.8408
859.225	49.3726
862.117	103.75
865.01	92.0063
867.903	48.9766
870.795	77.7241
873.688	88.3638
876.581	46.8257
879.473	82.3301
882.366	76.1465
885.259	11.5376
888.152	21.2622
891.044	38.3042
893.937	51.9419
896.83	74.0181
899.722	55.0996
902.615	24.2012
905.508	80.9644
908.4	4.88525
911.293	41.0078
914.186	57.3037
917.078	70.27
919.971	92.6431
922.864	118.884
925.757	128.057
928.649	103.019
931.542	97.1714
934.435	56.5542
937.327	124.361
940.22	38.8613
943.113	69.9292
946.005	121.08
948.898	113.67
951.791	161.586
954.684	154.647
957.576	148.573
960.469	163.647
963.362	163.497
966.254	201.17
969.147	135.473
972.04	105.632
974.933	97.459
977.825	89.4199
980.718	171.163
983.611	115.92
986.503	82.1001
989.396	65.9477
992.289	83.689
995.181	87.2627
998.074	107.372
1000.97	47.6284
1003.86	32.2017
1006.75	66.9253
1009.64	15.0879
1012.54	56.1826
1015.43	65.707
1018.32	8.87354
1021.22	18.272
1024.11	127.821
1027	56.2261
1029.89	61.9946
1032.79	2.95312
1035.68	66.4248
1038.57	23.4912
1041.46	26.8711
1044.36	62.8003
1047.25	84.375
1050.14	19.3501
1053.04	112.652
1055.93	88.085
1058.82	141.464
1061.71	74.8027
1064.61	109.522
1067.5	65.4121
1070.39	5.65381
1073.28	113.537
1076.18	121.073
1079.07	95.2349
1081.96	54.6914
1084.86	34.5996
1087.75	1.62598
1090.64	107.258
1093.53	81.6064
1096.43	5.2168
1099.32	181.186
1102.21	60.9204
1105.1	68.2783
1108	17.814
1110.89	47.3125
1113.78	116.198
1116.67	65.0015
1119.57	8.66162
1122.46	45.9243
1125.35	26.5171
1128.25	39.0347
1131.14	132.064
1134.03	43.978
1136.92	39.8794
1139.82	60.7837
1142.71	98.1006
1145.6	108.923
1148.49	78.9243
1151.39	112.437
1154.28	154.152
1157.17	125.003
1160.07	50.3286
1162.96	131.84
1165.85	76.6641
1168.74	78.4477
1171.64	72.5049
1174.53	113.592
1177.42	172.496
1180.31	20.293
1183.21	17.126
1186.1	109.079
1188.99	109.735
1191.88	137.623
1194.78	51.98
1197.67	88.75
1200.56	109.362
1203.46	30.6782
1206.35	18.9644
1209.24	115.873
1212.13	134.381
1215.03	91.6719
1217.92	46.6958
1220.81	144.978
1223.7	113.766
1226.6	103.686
1229.49	13.5869
1232.38	95.3979
1235.28	75.5405
1238.17	67.7559
1241.06	95.54
1243.95	14.5908
1246.85	36.6187
1249.74	26.3403
1252.63	142.13
1255.52	71.1821
1258.42	30.605
1261.31	81.5776
1264.2	77.6538
1267.1	95.6191
1269.99	89.6792
1272.88	104.362
1275.77	59.5962
1278.67	151.641
1281.56	124.359
1284.45	58.1323
1287.34	0
