Measurement: Raman, 532 nm, unoriented, Raman Data Processed
Mineral: Bismuth
Rruff sample: R070375
Ideal chemistry: Bi
Locality: Frontier mine, South Lorrain, Timiskaming District, Ontario, Canada
Source: Royal Ontario Museum
Description: Silver-white tarnished to grey cleavage fragments
Raman shift (cm-1)	intensity
133.27	0
136.645	41.6625
140.019	167.89
143.394	63.3568
146.769	65.42
150.144	48.0926
153.519	96.8644
156.894	95.915
160.268	83.0285
163.643	104.748
167.018	89.944
170.393	150.678
173.768	139.772
177.143	140.562
180.517	188.796
183.892	202.815
187.267	216.889
190.642	151.42
194.017	119.723
197.391	80.8307
200.766	82.7597
204.141	62.4667
207.516	18.0627
210.891	5.40094
214.266	18.4664
217.64	15.8155
221.015	12.729
224.39	24.1518
227.765	9.25738
231.14	1.36783
234.514	17.4162
237.889	2.15234
241.264	4.07306
244.639	15.2072
248.014	5.02795
251.388	14.8625
254.763	3.0957
258.138	1.19449
261.513	32.3449
264.888	19.8204
268.263	19.2629
271.637	37.7919
275.012	26.1247
278.387	20.6078
281.762	27.5298
285.137	17.1434
288.512	23.7746
291.886	29.7314
295.261	23.4011
298.636	9.50324
302.011	23.5712
305.386	7.01218
308.76	30.9378
312.135	13.8424
315.51	30.5781
318.885	29.6074
322.26	22.1888
325.635	12.1205
329.009	2.69516
332.384	26.2405
335.759	9.75784
339.134	28.3043
342.509	29.6892
345.883	25.7486
349.258	9.47726
352.633	16.9702
356.008	11.6816
359.383	29.5633
362.757	18.3729
366.132	32.4515
369.507	16.6253
372.882	36.7741
376.257	2.96378
379.632	37.7048
383.006	0.937347
386.381	17.0895
389.756	10.8419
393.131	15.4176
396.506	18.5202
399.88	19.4628
403.255	14.4615
406.63	4.0766
410.005	12.7359
413.38	17.3151
416.755	30.4409
420.129	35.5767
423.504	40.0809
426.879	22.6176
430.254	0.06546
433.629	17.4008
437.003	25.1394
440.378	2.27121
443.753	25.7803
447.128	33.9721
450.503	3.34103
453.878	14.8402
457.252	27.9084
460.627	34.8207
464.002	8.61005
467.377	30.9754
470.752	17.0665
474.127	19.2375
477.501	18.918
480.876	23.5331
484.251	33.8241
487.626	24.748
491.001	22.0547
494.375	11.3038
497.75	42.3758
501.125	16.1027
504.5	36.3781
507.875	10.8142
511.25	22.9033
514.624	11.6277
517.999	3.72763
521.374	22.766
524.749	5.34225
528.124	5.01602
531.498	0.131989
534.873	6.6268
538.248	21.1119
541.623	27.4373
544.998	30.8121
548.372	16.3565
551.747	24.3305
555.122	36.8361
558.497	13.0894
561.872	26.3212
565.247	19.629
568.621	17.0847
571.996	33.6992
575.371	44.117
578.746	27.3018
582.121	47.5469
585.495	52.1261
588.87	39.7002
592.245	30.0018
595.62	11.6379
598.995	11.9221
602.37	15.5279
605.744	12.733
609.119	8.14334
612.494	7.60306
615.869	10.6387
619.244	0.732971
622.619	12.7212
625.993	21.9249
629.368	17.2616
632.743	13.2265
636.118	7.48175
639.493	16.2739
642.867	25.3886
646.242	9.44585
649.617	2.57727
652.992	3.59358
656.367	15.6375
659.741	5.19637
663.116	10.2631
666.491	5.05594
669.866	48.2189
673.241	19.9186
676.616	34.592
679.99	22.9293
683.365	16.1896
686.74	26.4843
690.115	4.70657
693.49	12.1418
696.865	20.7776
700.239	24.5829
703.614	14.3529
706.989	17.9074
710.364	20.6612
713.739	2.44934
717.113	29.786
720.488	31.2057
723.863	23.0823
727.238	31.5662
730.613	16.7862
733.987	6.52228
737.362	14.2525
740.737	17.3892
744.112	12.8033
747.487	36.7554
750.862	16.9744
754.236	18.6472
757.611	24.5153
760.986	28.5238
764.361	28.4172
767.736	23.7168
771.111	12.7623
774.485	22.6038
777.86	1.93208
781.235	13.7599
784.61	8.56427
787.985	16.9741
791.359	20.6186
794.734	20.6298
798.109	4.2175
801.484	9.16646
804.859	11.852
808.234	4.54706
811.608	6.79851
814.983	5.08716
818.358	10.7601
821.733	20.4478
825.108	12.4269
828.482	4.7106
831.857	7.26009
835.232	22.6062
838.607	26.8404
841.982	20.0904
845.356	24.3623
848.731	21.1517
852.106	9.77301
855.481	7.41055
858.856	27.3452
862.231	1.49959
865.605	18.7468
868.98	16.1983
872.355	25.0077
875.73	31.3135
879.105	32.5747
882.48	20.4209
885.854	12.1536
889.229	22.9557
892.604	20.574
895.979	13.4396
899.354	9.8623
902.729	17.4897
906.103	27.4321
909.478	24.3942
912.853	26.9222
916.228	21.301
919.602	27.3916
922.977	21.0842
926.352	3.43288
929.727	10.0294
933.102	12.0654
936.477	14.0625
939.851	9.73303
943.226	3.04514
946.601	16.0771
949.976	27.662
953.351	23.4599
956.726	10.082
960.1	6.62727
963.475	4.00795
966.85	22.7091
970.225	18.9716
973.6	3.44164
976.974	10.9381
980.349	22.1129
983.724	10.9953
987.099	8.31306
990.474	18.8291
993.848	38.7704
997.223	33.3945
1000.6	17.0382
1003.97	19.0661
1007.35	21.2264
1010.72	24.8343
1014.1	10.0791
1017.47	28.5391
1020.85	15.9054
1024.22	13.0246
1027.6	31.6147
1030.97	23.6191
1034.35	27.8663
1037.72	30.3878
1041.1	48.393
1044.47	42.0172
1047.85	23.5078
1051.22	11.3719
1054.6	19.4168
1057.97	10.6454
1061.35	7.97343
1064.72	12.2165
1068.09	19.0033
1071.47	27.5723
1074.84	11.9162
1078.22	20.8486
1081.59	25.9809
1084.97	20.2519
1088.34	19.0471
1091.72	22.9527
1095.09	4.29295
1098.47	22.3051
1101.84	9.55277
1105.22	38.5119
1108.59	7.10216
1111.97	8.12936
1115.34	33.2041
1118.72	12.652
1122.09	21.0467
1125.47	24.291
1128.84	3.6199
1132.22	22.1937
1135.59	16.9841
1138.97	24.1902
1142.34	13.9479
1145.71	18.8378
1149.09	9.80753
1152.46	16.8864
1155.84	32.7959
1159.21	2.95338
1162.59	17.1705
1165.96	9.47116
1169.34	10.0291
1172.71	29.4025
1176.09	8.26343
1179.46	12.5382
1182.84	1.88458
1186.21	35.7746
1189.59	26.3478
1192.96	23.9787
1196.34	11.8788
1199.71	17.5981
1203.09	8.62831
1206.46	17.1558
1209.84	23.5768
1213.21	18.5111
1216.59	39.5968
1219.96	23.264
1223.34	40.194
1226.71	20.239
1230.09	32.0608
1233.46	36.4027
1236.84	48.9712
1240.21	20.2591
1243.59	35.6508
1246.96	14.164
1250.34	22.797
1253.71	31.5462
1257.08	11.0708
1260.46	31.7204
1263.83	34.3358
1267.21	32.5332
1270.58	24.777
1273.96	38.9658
1277.33	26.0207
1280.71	1.22108
1284.08	32.3066
1287.46	31.8086
1290.83	21.263
1294.21	14.457
1297.58	17.6101
1300.96	19.991
1304.33	17.5693
1307.71	0
