Measurement: Raman, 532 nm, unoriented, Raman Data Processed
Mineral: Bismuthinite
Rruff sample: R070617
Ideal chemistry: Bi^3+^_2_S^2-^_3_
Locality: Hachita, Grants County, New Mexico, USA
Source: James Shigley
Description: Steel-gray metallic massive lamellar, associated with quartz.
Raman shift (cm-1)	intensity
164.333	0
167.226	11.1758
170.119	188.434
173.011	206.666
175.904	8.80615
178.797	43.5772
181.69	21.0586
184.582	95.2568
187.475	21.2583
190.368	72.478
193.26	157.751
196.153	229.45
199.046	270.45
201.938	376.07
204.831	556.106
207.724	732.976
210.617	934.486
213.509	1208.98
216.402	1288.97
219.295	1629.97
222.187	1887.21
225.08	1968.77
227.973	2170.95
230.865	2418.03
233.758	2443.76
236.651	2556.72
239.543	2552.69
242.436	2562.34
245.329	2320.63
248.222	2493.62
251.114	2382.03
254.007	2197.89
256.9	1689.04
259.792	1570.53
262.685	1367.18
265.578	1093.5
268.471	1056.28
271.363	718.112
274.256	630.535
277.149	591.466
280.041	480.332
282.934	275.434
285.827	306.064
288.719	330.541
291.612	136.709
294.505	340.646
297.397	137.27
300.29	20.843
303.183	93.2345
306.076	127.099
308.968	36.7693
311.861	102.764
314.754	50.7179
317.646	34.9202
320.539	56.3157
323.432	20.7922
326.325	24.5599
329.217	8.91187
332.11	37.5593
335.002	33.3761
337.895	22.2024
340.788	88.7643
343.681	29.327
346.573	39.8607
349.466	59.3426
352.359	119.334
355.251	214.515
358.144	207.728
361.037	122.224
363.93	136.726
366.822	232.728
369.715	105.564
372.608	229.093
375.5	181.826
378.393	231.293
381.286	43.7163
384.178	87.6185
387.071	163.709
389.964	139.287
392.856	122.934
395.749	83.1539
398.642	209.12
401.535	120.203
404.427	141.085
407.32	117.367
410.213	212.913
413.105	144.344
415.998	89.287
418.891	249.107
421.784	276.586
424.676	232.214
427.569	231.557
430.462	197.869
433.354	147.154
436.247	160.14
439.14	243.058
442.032	122.453
444.925	178.176
447.818	218.801
450.711	161.062
453.603	106.341
456.496	183.521
459.389	120.222
462.281	131.446
465.174	165.661
468.067	90.5627
470.959	19.6633
473.852	102.465
476.745	47.9597
479.637	139.184
482.53	53.9202
485.423	122.913
488.316	230.93
491.208	137.873
494.101	6.70737
496.994	88.5302
499.886	160.154
502.779	203.204
505.672	122.649
508.565	207.6
511.457	143.887
514.35	138.759
517.243	201.165
520.135	168.993
523.028	18.0234
525.921	152.021
528.813	129.424
531.706	120.328
534.599	148.646
537.491	37.2761
540.384	18.3856
543.277	74.716
546.17	133.562
549.062	104.457
551.955	116.759
554.848	115.635
557.74	200.232
560.633	124.095
563.526	19.505
566.418	85.2646
569.311	47.6638
572.204	159.764
575.097	23.877
577.989	106.118
580.882	166.155
583.775	126.721
586.667	157.686
589.56	119.254
592.453	113.543
595.346	176.246
598.238	154.904
601.131	193.851
604.024	133.861
606.916	187.01
609.809	79.0174
612.702	188.557
615.594	68.5315
618.487	108.204
621.38	93.9378
624.273	133.791
627.165	57.9568
630.058	56.7924
632.951	199.298
635.843	29.4664
638.736	66.5652
641.629	1.99745
644.521	117.137
647.414	24.5349
650.307	28.6496
653.199	37.5607
656.092	11.6353
658.985	118.686
661.878	70.2963
664.77	80.654
667.663	6.16066
670.556	77.7944
673.448	110.984
676.341	102.691
679.234	105.838
682.126	138.024
685.019	156.39
687.912	121.602
690.805	60.7727
693.697	74.4612
696.59	50.4992
699.483	55.7406
702.375	38.7205
705.268	41.1266
708.161	94.3641
711.053	150.607
713.946	173.413
716.839	16.6372
719.732	60.5693
722.624	82.7059
725.517	189.496
728.41	102.224
731.302	60.8049
734.195	105.498
737.088	120
739.981	35.0338
742.873	47.7083
745.766	122.086
748.659	176.314
751.551	30.9775
754.444	40.4613
757.337	74.0186
760.229	208.552
763.122	133.193
766.015	72.5883
768.908	103.02
771.8	52.3239
774.693	126.546
777.586	126.816
780.478	179.309
783.371	87.3196
786.264	147.294
789.156	50.7831
792.049	32.9013
794.942	106.566
797.834	50.2723
800.727	57.5909
803.62	151.393
806.513	96.7223
809.405	149.375
812.298	80.8922
815.191	34.2357
818.083	53.3315
820.976	85.0789
823.869	89.8595
826.761	21.7512
829.654	68.086
832.547	21.2615
835.439	8.51382
838.332	50.9209
841.225	140.157
844.118	27.8579
847.01	24.3543
849.903	58.2682
852.796	41.2309
855.688	77.1201
858.581	34.2267
861.474	88.4148
864.366	113.505
867.259	87.9626
870.152	52.2583
873.045	61.2938
875.937	34.7733
878.83	91.6476
881.723	106.496
884.615	102.412
887.508	15.8436
890.401	9.35059
893.293	28.5577
896.186	82.5246
899.079	75.3233
901.972	60.2027
904.864	16.4279
907.757	107.724
910.65	79.0364
913.542	35.3924
916.435	176.388
919.328	136.502
922.221	23.9018
925.113	103.347
928.006	126.262
930.899	18.8605
933.791	208.285
936.684	168.455
939.577	209.034
942.469	143.001
945.362	211.725
948.255	294.844
951.148	124.328
954.04	257.19
956.933	262.795
959.826	300.822
962.718	447.906
965.611	340.072
968.504	359.713
971.396	264.104
974.289	229.376
977.182	190.535
980.074	158.114
982.967	143.868
985.86	252.6
988.753	147.693
991.645	221.157
994.538	117.717
997.431	157.672
1000.32	125.384
1003.22	84.5025
1006.11	108.401
1009	76.8401
1011.89	74.3027
1014.79	133.057
1017.68	106.201
1020.57	132.987
1023.47	59.0531
1026.36	78.4778
1029.25	101.555
1032.14	121.242
1035.04	81.7764
1037.93	31.2386
1040.82	26.9876
1043.71	22.441
1046.61	8.21373
1049.5	9.99698
1052.39	125.113
1055.29	49.2628
1058.18	91.7873
1061.07	47.14
1063.96	67.288
1066.86	31.6948
1069.75	45.1205
1072.64	86.8072
1075.53	104.002
1078.43	113.955
1081.32	33.4093
1084.21	16.271
1087.1	95.0954
1090	19.4675
1092.89	51.1244
1095.78	7.56255
1098.67	42.466
1101.57	122.691
1104.46	5.85991
1107.35	79.1055
1110.25	36.6465
1113.14	63.062
1116.03	16.0393
1118.92	89.7712
1121.82	57.421
1124.71	104.041
1127.6	9.95937
1130.49	64.1431
1133.39	93.6187
1136.28	89.5845
1139.17	110.621
1142.07	98.7227
1144.96	17.3344
1147.85	71.183
1150.74	61.4948
1153.64	153.44
1156.53	79.4514
1159.42	69.5517
1162.32	94.6504
1165.21	46.2873
1168.1	53.476
1170.99	63.7131
1173.88	91.4115
1176.78	91.6655
1179.67	49.1039
1182.56	84.4278
1185.46	149.923
1188.35	92.8165
1191.24	158.857
1194.13	80.9532
1197.03	88.0212
1199.92	84.8055
1202.81	84.3776
1205.7	78.2959
1208.6	75.7366
1211.49	70.8731
1214.38	45.4735
1217.28	23.9198
1220.17	62.4662
1223.06	164.401
1225.95	95.2612
1228.85	86.9213
1231.74	100.491
1234.63	110.724
1237.53	63.556
1240.42	23.9976
1243.31	124.871
1246.2	105.177
1249.1	44.7176
1251.99	20.8509
1254.88	96.5501
1257.77	92.4019
1260.67	95.3147
1263.56	25.5434
1266.45	86.2741
1269.34	145.613
1272.24	77.1946
1275.13	92.7996
1278.02	20.7493
1280.91	94.1973
1283.81	32.2617
1286.7	126.481
1289.59	72.7257
1292.49	53.9793
1295.38	102.159
1298.27	38.8835
