Measurement: Raman, 785 nm, unoriented, Raman Data Processed
Mineral: Bismuth
Rruff sample: R070375
Ideal chemistry: Bi
Locality: Frontier mine, South Lorrain, Timiskaming District, Ontario, Canada
Source: Royal Ontario Museum
Description: Silver-white tarnished to grey cleavage fragments
Raman shift (cm-1)	intensity
156.696	0
159.589	32.199
162.481	79.4844
165.374	11.3874
168.267	36.3083
171.16	52.6728
174.052	53.4128
176.945	41.305
179.838	7.20624
182.73	2.39514
185.623	28.1539
188.516	79.8499
191.408	30.8211
194.301	43.2006
197.194	20.5577
200.087	20.8124
202.979	9.85927
205.872	12.6683
208.765	5.84038
211.657	0.465973
214.55	0.46019
217.443	7.27463
220.335	12.9612
223.228	25.4676
226.121	9.85412
229.013	11.3693
231.906	20.0237
234.799	22.5861
237.692	34.0801
240.584	29.5031
243.477	29.3762
246.37	39.0192
249.262	31.9066
252.155	41.3091
255.048	49.823
257.941	37.8199
260.833	32.2637
263.726	38.8504
266.619	33.4136
269.511	38.962
272.404	34.0886
275.297	29.1665
278.19	29.0336
281.082	28.5922
283.975	27.6856
286.868	21.039
289.76	20.8153
292.653	15.5528
295.546	11.2697
298.438	15.3414
301.331	11.389
304.224	15.9402
307.116	13.8376
310.009	10.8294
312.902	14.6112
315.795	10.5488
318.687	14.5401
321.58	11.7599
324.473	9.5348
327.365	6.3858
330.258	6.8212
333.151	6.28275
336.043	3.7817
338.936	4.28707
341.829	6.93923
344.721	7.0342
347.614	4.36838
350.507	8.05916
353.4	4.46427
356.292	6.63973
359.185	1.81205
362.078	3.40435
364.97	2.62482
367.863	0.079147
370.756	1.35268
373.649	1.17455
376.541	1.88931
379.434	5.06938
382.327	2.44927
385.219	4.50506
388.112	1.89545
391.005	0.940498
393.897	3.95995
396.79	5.75585
399.683	1.88651
402.575	0.257698
405.468	1.99839
408.361	3.62643
411.254	0.580925
414.146	1.72196
417.039	3.95369
419.932	5.37373
422.824	5.27874
425.717	4.11181
428.61	0.087429
431.502	2.25375
434.395	0.008533
437.288	4.6225
440.181	1.54222
443.073	8.47247
445.966	6.71848
448.859	4.14814
451.751	5.04936
454.644	0.678909
457.537	5.21284
460.43	2.48107
463.322	0.656521
466.215	5.3936
469.108	4.90901
472	4.4364
474.893	2.68605
477.786	3.73598
480.678	5.9669
483.571	2.4013
486.464	6.89806
489.356	6.82681
492.249	3.86031
495.142	3.816
498.035	3.80672
500.927	5.32984
503.82	3.87092
506.713	2.11729
509.605	4.75195
512.498	6.2677
515.391	1.60898
518.284	6.92625
521.176	7.42295
524.069	4.28685
526.962	9.36506
529.854	3.95776
532.747	7.45329
535.64	3.55368
538.533	9.40741
541.425	4.85237
544.318	7.05872
547.211	3.9106
550.103	0.294907
552.996	4.58767
555.889	1.97423
558.781	6.70836
561.674	3.47672
564.567	3.59281
567.459	5.79343
570.352	5.37396
573.245	6.43786
576.138	5.13251
579.03	7.00982
581.923	2.2771
584.816	5.644
587.708	3.39868
590.601	3.46055
593.494	3.93922
596.386	6.38169
599.279	3.47066
602.172	4.73612
605.064	9.32946
607.957	1.40488
610.85	4.29684
613.743	3.33955
616.635	8.72619
619.528	3.63454
622.421	7.09404
625.313	0.676172
628.206	3.77108
631.099	2.78636
633.991	3.57135
636.884	0.750216
639.777	6.39467
642.67	4.65551
645.562	7.79105
648.455	7.308
651.348	3.68682
654.24	0.264339
657.133	9.41895
660.026	0.82085
662.918	5.36286
665.811	5.37424
668.704	1.16491
671.597	3.57388
674.489	3.09614
677.382	2.8901
680.275	2.62604
683.167	5.02202
686.06	2.77778
688.953	7.23736
691.846	6.04245
694.738	1.02921
697.631	6.91423
700.524	5.82238
703.416	2.38856
706.309	4.17982
709.202	7.35054
712.094	3.58972
714.987	0.729401
717.88	0.630413
720.773	9.96076
723.665	1.75074
726.558	1.62453
729.451	4.80642
732.343	7.32262
735.236	4.22134
738.129	3.72673
741.021	2.70729
743.914	5.95853
746.807	5.10897
749.699	0.282372
752.592	5.31131
755.485	1.07347
758.378	1.62769
761.27	2.81672
764.163	4.98476
767.056	6.81638
769.948	3.99027
772.841	2.94673
775.734	1.60019
778.626	3.46568
781.519	2.69494
784.412	7.94094
787.305	7.91506
790.197	2.26686
793.09	9.9955
795.983	0.257565
798.875	0.029072
801.768	0.170841
804.661	3.33899
807.553	4.05331
810.446	4.04731
813.339	2.30507
816.232	5.54998
819.124	7.42794
822.017	4.06105
824.91	4.05088
827.802	0.586662
830.695	3.71765
833.588	5.62162
836.481	2.35712
839.373	5.38804
842.266	0.6106
845.159	2.67295
848.051	4.4224
850.944	5.51289
853.837	8.27081
856.729	3.27495
859.622	4.49745
862.515	3.97717
865.408	2.52487
868.3	7.10255
871.193	6.22205
874.086	3.83137
876.978	11.9467
879.871	2.31563
882.764	0.372181
885.656	3.23259
888.549	2.2235
891.442	0.548782
894.335	9.90011
897.227	8.84108
900.12	6.10176
903.013	6.3828
905.905	3.29185
908.798	2.23286
911.691	4.79497
914.583	0.455566
917.476	1.38908
920.369	3.5721
923.261	3.79756
926.154	5.21465
929.047	5.79731
931.94	5.83525
934.832	2.57835
937.725	6.90168
940.618	7.57246
943.51	3.78242
946.403	5.59661
949.296	3.92642
952.188	3.1812
955.081	2.83598
957.974	4.33984
960.867	3.81468
963.759	9.70346
966.652	5.60974
969.545	7.68668
972.437	3.65919
975.33	8.00357
978.223	9.62834
981.115	8.79645
984.008	1.85579
986.901	1.41894
989.794	4.97729
992.686	0.571602
995.579	6.28771
998.472	3.02291
1001.36	1.5932
1004.26	2.66629
1007.15	4.82764
1010.04	6.93007
1012.93	12.266
1015.83	6.7422
1018.72	7.72473
1021.61	14.4743
1024.51	6.73439
1027.4	12.3189
1030.29	1.07303
1033.18	4.92583
1036.08	1.99453
1038.97	7.27341
1041.86	6.5603
1044.76	8.02431
1047.65	4.1764
1050.54	3.00171
1053.43	5.15587
1056.33	7.51136
1059.22	9.86126
1062.11	1.06995
1065	4.20498
1067.9	5.64176
1070.79	1.44989
1073.68	9.91637
1076.58	4.34254
1079.47	4.96111
1082.36	2.6036
1085.25	7.37412
1088.14	7.55748
1091.04	5.33354
1093.93	0.946018
1096.82	5.34799
1099.72	0.051579
1102.61	5.35802
1105.5	5.94469
1108.39	0.465912
1111.29	4.23853
1114.18	2.56489
1117.07	4.93661
1119.96	6.79743
1122.86	4.87105
1125.75	5.82689
1128.64	4.20271
1131.54	3.08785
1134.43	1.91407
1137.32	5.41049
1140.21	3.77633
1143.11	3.6273
1146	9.11055
1148.89	6.25615
1151.79	1.85306
1154.68	4.56544
1157.57	4.26088
1160.46	2.39254
1163.36	9.06197
1166.25	2.08545
1169.14	4.45573
1172.03	1.85745
1174.93	5.61165
1177.82	5.01834
1180.71	2.73256
1183.6	5.26214
1186.5	4.2538
1189.39	3.52227
1192.28	5.93926
1195.17	4.4876
1198.07	4.1594
1200.96	9.59427
1203.85	3.81332
1206.75	2.43856
1209.64	1.7
1212.53	4.00911
1215.42	6.2402
1218.32	8.96562
1221.21	8.09121
1224.1	10.6706
1226.99	0.240932
1229.89	6.93268
1232.78	4.5752
