Measurement: Raman, 780 nm, unoriented, Raman Data Processed
Mineral: Bobkingite
Rruff sample: R141030
Ideal chemistry: Cu^2+^_5_Cl_2_(OH)_8_2H_2_O
Locality: Cerro Minado Mines, Cuesta Alta, Huércal-Overa, Almería, Andalusia, Spain
Source: William W. Pinch and Robert Pecorini
Description: Aggregates of acicular to bladed bundles of blue crystals on quartz
Raman shift (cm-1)	intensity
90.5957	0
93.9705	2.02842
97.3453	2.54035
100.72	3.34276
104.095	6.22663
107.47	6.29584
110.845	3.83953
114.219	2.75433
117.594	1.52444
120.969	1.74256
124.344	0.95555
127.719	0.191603
131.094	0.334146
134.468	0.170362
137.843	0.678527
141.218	0.90608
144.593	1.33354
147.968	0.686948
151.342	2.65388
154.717	3.33451
158.092	1.87513
161.467	1.89576
164.842	1.29665
168.216	0.128168
171.591	1.14531
174.966	1.61315
178.341	0.913917
181.716	0.594656
185.09	0.86671
188.465	1.13639
191.84	0.552867
195.215	0.839151
198.59	0.333062
201.965	0.673897
205.339	0.292615
208.714	1.09157
212.089	1.79433
215.464	1.49456
218.839	1.56303
222.214	1.35999
225.588	1.1104
228.963	1.18333
232.338	1.18883
235.713	1.34071
239.088	1.15027
242.462	1.90181
245.837	1.34883
249.212	0.918958
252.587	1.252
255.962	0.328301
259.336	0.475419
262.711	0.172517
266.086	0.374842
269.461	0.158945
272.836	0.20022
276.211	0.825552
279.585	0.304132
282.96	0.614101
286.335	0.717031
289.71	0.79898
293.085	0.574893
296.459	0.026099
299.834	0.079682
303.209	0.247138
306.584	0.758147
309.959	0.433213
313.334	1.28342
316.708	0.300587
320.083	0.408273
323.458	0.164104
326.833	0.227726
330.207	0.259085
333.582	0.760803
336.957	0.198637
340.332	0.571104
343.707	0.382348
347.082	0.227417
350.456	1.5672
353.831	0.679325
357.206	0.324061
360.581	0.660881
363.956	0.139902
367.33	0.618773
370.705	1.212
374.08	0.82272
377.455	1.37781
380.83	1.44102
384.205	0.767128
387.579	1.70477
390.954	0.180521
394.329	1.11537
397.704	0.630499
401.079	0.374835
404.453	0.639598
407.828	0.437855
411.203	0.967287
414.578	1.33187
417.953	0.521376
421.327	0.718268
424.702	1.51802
428.077	0.993761
431.452	0.346042
434.827	0.243126
438.202	0.331156
441.576	0.68924
444.951	0.375032
448.326	1.04574
451.701	0.175685
455.076	0.718635
458.45	0.591164
461.825	1.02903
465.2	1.11023
468.575	1.4409
471.95	1.60631
475.325	1.18903
478.699	1.47996
482.074	1.51092
485.449	1.37521
488.824	1.80795
492.199	1.64064
495.573	1.84362
498.948	1.65582
502.323	2.69459
505.698	1.68989
509.073	2.23022
512.447	2.40672
515.822	2.67707
519.197	1.89678
522.572	0.763748
525.947	1.70166
529.322	1.45919
532.696	0.880518
536.071	1.5455
539.446	0.14016
542.821	0.525653
546.196	1.13405
549.57	0.930653
552.945	0.445975
556.32	0.147048
559.695	0.413954
563.07	0.034218
566.444	0.106284
569.819	1.37449
573.194	0.006008
576.569	0.33198
579.944	0.822056
583.319	0.107125
586.693	1.01184
590.068	0.560435
593.443	0.164741
596.818	1.5581
600.193	1.0377
603.567	0.576958
606.942	0.786981
610.317	0.690607
613.692	0.48613
617.067	0.388923
620.442	1.18487
623.816	1.0268
627.191	0.145763
630.566	1.47273
633.941	0.098536
637.316	0.289617
640.69	0.313819
644.065	0.715228
647.44	0.390624
650.815	0.55001
654.19	0.502211
657.564	0.758055
660.939	0.348731
664.314	0.039287
667.689	0.65835
671.064	0.480672
674.439	0.822913
677.813	0.330317
681.188	0.90345
684.563	0.852039
687.938	0.442153
691.313	0.649277
694.688	0.01661
698.062	0.550811
701.437	0.386395
704.812	0.867847
708.187	0.590656
711.562	0.870114
714.936	0.347856
718.311	0.419229
721.686	1.1979
725.061	0.609402
728.436	0.665589
731.81	0.518813
735.185	0.097627
738.56	0.032512
741.935	1.19689
745.31	1.0097
748.684	0.252247
752.059	1.0921
755.434	0.362569
758.809	0.209655
762.184	0.308417
765.559	0.346842
768.933	0.627759
772.308	0.903707
775.683	1.01707
779.058	0.750668
782.433	1.17836
785.808	1.02172
789.182	0.360038
792.557	0.040847
795.932	0.367262
799.307	0.903852
802.682	0.570529
806.056	1.13006
809.431	0.813395
812.806	0.85482
816.181	0.481343
819.556	1.01905
822.93	0.871737
826.305	0.922069
829.68	1.06613
833.055	1.18901
836.43	0.043508
839.804	0.770593
843.179	0.739105
846.554	0.308704
849.929	0.514264
853.304	0.434915
856.679	1.0948
860.053	0.768202
863.428	0.078058
866.803	0.836796
870.178	1.09911
873.553	0.987592
876.927	1.51246
880.302	0.878402
883.677	0.043841
887.052	0.614275
890.427	0.687237
893.802	0.0072
897.176	1.244
900.551	0.020642
903.926	0.836655
907.301	0.28992
910.676	0.498377
914.05	0.180598
917.425	0.033177
920.8	1.32962
924.175	0.930784
927.55	0.346738
930.924	1.23535
934.299	0.909825
937.674	0.406746
941.049	0.027356
944.424	0.915003
947.799	0.719807
951.173	1.04596
954.548	0.566335
957.923	1.34694
961.298	0.86545
964.673	0.896706
968.047	0.327204
971.422	1.14297
974.797	1.07777
978.172	0.514524
981.547	1.41915
984.922	0.554867
988.296	1.24694
991.671	0.865281
995.046	0.45996
998.421	0.302045
1001.8	0.335266
1005.17	1.01184
1008.54	0.479921
1011.92	0.103599
1015.29	0.389446
1018.67	0.712921
1022.04	0.691108
1025.42	0.632723
1028.79	0.747731
1032.17	1.38401
1035.54	1.1488
1038.92	0.926708
1042.29	0.415165
1045.67	0.914672
1049.04	1.00782
1052.42	1.14247
1055.79	0.630293
1059.17	1.0076
1062.54	0.760788
1065.92	0.019218
1069.29	1.08128
1072.67	1.31467
1076.04	1.04703
1079.42	1.1078
1082.79	0.941096
1086.17	0.16588
1089.54	0.108642
1092.92	0.778418
1096.29	0.335759
1099.66	0.53882
1103.04	1.16627
1106.41	0.903606
1109.79	1.03274
1113.16	0.98137
1116.54	0.22563
1119.91	0.30979
1123.29	1.03342
1126.66	0.980946
1130.04	0.735008
1133.41	0.795609
1136.79	0.718281
1140.16	0.019764
1143.54	0.774891
1146.91	0.280434
1150.29	1.07105
1153.66	0.786635
1157.04	0.027031
1160.41	0.49462
1163.79	1.80918
1167.16	0.862119
1170.54	1.54866
1173.91	1.29716
1177.29	0.602617
1180.66	0.190128
1184.04	0.385517
1187.41	1.09283
1190.79	1.51881
1194.16	1.07742
1197.54	1.19471
1200.91	1.15862
1204.28	0.931888
1207.66	0.449801
1211.03	1.51224
1214.41	0.945871
1217.78	1.23629
1221.16	1.58171
1224.53	0.727141
1227.91	0.47608
1231.28	0.905494
1234.66	0.330871
1238.03	0.73106
1241.41	0.97325
1244.78	1.59971
1248.16	0.655495
1251.53	0.291578
1254.91	0.040194
1258.28	0.64806
1261.66	0.304032
1265.03	0.60664
1268.41	0.827428
1271.78	0.192652
1275.16	0.72657
1278.53	0.741055
1281.9	1.02186
