Measurement: Raman, 532 nm, unoriented, Raman Data Processed
Mineral: Boltwoodite
Rruff sample: R060753
Ideal chemistry: (K,Na)U^6+^O_2_(SiO_3_OH)1.5H_2_O
Locality: Rossing mine, between Rossing & Arandis, near Swakopmund, Namibia
Source: Michael Scott
Description: Radiating tufts of pale yellow-orange bladed crystals
Raman shift (cm-1)	intensity
144.665	0
147.557	595.594
150.45	27.2656
153.343	46.2969
156.235	647.625
159.128	3562.55
162.021	6271.27
164.913	7336.72
167.806	6491.2
170.699	4624.03
173.592	4564.73
176.484	5346.16
179.377	5457.53
182.27	6144.34
185.162	6725.34
188.055	6405.89
190.948	6468.98
193.84	5491.05
196.733	4093.47
199.626	4870.77
202.519	5025.59
205.411	6309.72
208.304	6471.94
211.197	5814.25
214.089	5858.97
216.982	6406.88
219.875	7125.94
222.767	6256.34
225.66	4849.03
228.553	5292
231.446	4549.31
234.338	3344.78
237.231	2304.38
240.124	2325.19
243.016	3190.34
245.909	3871.91
248.802	3438.72
251.694	2338.41
254.587	798.688
257.48	347.469
260.373	2181.38
263.265	3751.22
266.158	4395.53
269.051	3778.31
271.943	2782.31
274.836	2777.84
277.729	3535.34
280.621	3238.59
283.514	3646.97
286.407	2294.5
289.3	1872
292.192	1502.47
295.085	156.844
297.978	1203.12
300.87	141.438
303.763	2364.53
306.656	4078.78
309.548	4672
312.441	3649.66
315.334	2401.09
318.226	1270.66
321.119	823.062
324.012	1817.56
326.904	2425.19
329.797	2684.06
332.69	3013.22
335.583	1980.75
338.475	2536.59
341.368	2456.44
344.261	1432.09
347.153	1573.16
350.046	2988.78
352.939	3918.97
355.832	3247.72
358.724	1042.06
361.617	92.4688
364.51	774.875
367.402	276.875
370.295	174.781
373.188	658.062
376.08	1459.88
378.973	1702.69
381.866	30.5938
384.759	1236.03
387.651	3532.81
390.544	4304.56
393.437	3590.31
396.329	2707.84
399.222	2412.53
402.115	1769.03
405.007	1326.09
407.9	2137.12
410.793	2005.16
413.685	2687.06
416.578	4343
419.471	4363.12
422.364	2232.44
425.256	2231.44
428.149	630.125
431.042	1433.38
433.934	1223.06
436.827	1434.44
439.72	2298.94
442.612	2304.81
445.505	2898.19
448.398	2609.38
451.291	1677.38
454.183	2446.06
457.076	1894.5
459.969	822
462.861	739.562
465.754	2099.81
468.647	3331.81
471.539	3922.81
474.432	2867.38
477.325	877.5
480.217	35.625
483.11	1902.25
486.003	4696.38
488.896	4182.19
491.788	1558.81
494.681	676.375
497.574	39.5625
500.466	161.938
503.359	359.438
506.252	723.188
509.144	856.625
512.037	862.75
514.93	1817.12
517.823	3634.38
520.715	5252.44
523.608	5531.94
526.501	5538.5
529.393	5489.75
532.286	4537.25
535.179	1946.88
538.072	1402.81
540.964	2758.12
543.857	3750.44
546.75	4161.5
549.642	3426.31
552.535	2021
555.428	1124.12
558.32	33.375
561.213	740.312
564.106	2749.81
566.998	3391.06
569.891	5124
572.784	3537.31
575.677	3123.88
578.569	1876.25
581.462	1266.69
584.355	2194
587.247	3918.06
590.14	2985.69
593.033	1890.69
595.925	1184.19
598.818	1025.94
601.711	881.938
604.604	2036.69
607.496	3743.62
610.389	3801.38
613.282	4682.69
616.174	3043.62
619.067	3804.75
621.96	5274.44
624.852	6580.25
627.745	5946.81
630.638	3606.25
633.53	10.625
636.423	1243.44
639.316	170.188
642.209	1390.69
645.101	202.5
647.994	2437.62
650.887	7494.81
653.779	7860.38
656.672	6647.25
659.565	5621.94
662.457	3073.75
665.35	3767
668.243	4060.94
671.135	5204.5
674.028	3544.25
676.921	332.812
679.814	1119.62
682.706	2738.38
685.599	5803.81
688.492	4315.81
691.384	5218.12
694.277	6116.31
697.17	5442.75
700.062	2555.5
702.955	1255.5
705.848	1213.88
708.741	527.438
711.633	489.562
714.526	1527.88
717.419	2489.56
720.311	3027.94
723.204	3932.56
726.097	3041.94
728.99	2918.12
731.882	1590.25
734.775	811.25
737.668	1835.81
740.56	532
743.453	3061.06
746.346	6913.62
749.238	9601.94
752.131	3027.31
755.024	3349.56
757.916	4613.31
760.809	1235.44
763.702	252.312
766.595	1564.69
769.487	7324.88
772.38	9287.69
775.273	6692.12
778.165	6908.25
781.058	10768.1
783.951	14281.5
786.843	16620.5
789.736	21654.9
792.629	26895.9
795.521	29396
798.414	27004.8
801.307	18658.2
804.2	12164.4
807.092	6654.62
809.985	5269.56
812.878	3908.25
815.77	3063.38
818.663	2186.12
821.556	61.75
824.448	1544.38
827.341	4150.88
830.234	5178.38
833.127	3976.38
836.019	2407.88
838.912	3629.25
841.805	2722.38
844.697	4292
847.59	4441.5
850.483	3124.62
853.375	85.875
856.268	846
859.161	1703.5
862.053	4336.5
864.946	3828.88
867.839	2591.62
870.732	458.875
873.624	1611.12
876.517	1451.38
879.41	4883.25
882.302	4553.62
885.195	5422
888.088	7422.88
890.981	7927.38
893.873	13509.4
896.766	12251.8
899.659	9070
902.551	3714
905.444	2259
908.337	1908.25
911.229	561.375
914.122	767.125
917.015	235.75
919.908	172
922.8	4143.75
925.693	9504.88
928.586	11798.1
931.478	10445.6
934.371	7860
937.264	7793.12
940.156	7472
943.049	4685.88
945.942	3110
948.835	1397.5
951.727	2414.25
954.62	3335
957.513	4221.75
960.405	4457.5
963.298	5275.88
966.191	3972.5
969.083	2960.62
971.976	2367.25
974.869	2113.38
977.761	4511.12
980.654	4909.88
983.547	3556
986.439	28.125
989.332	1139.62
992.225	1218
995.118	975.75
998.01	142.125
1000.9	2699.75
1003.8	4171.75
1006.69	5696.25
1009.58	4074.75
1012.47	4527.75
1015.37	4856.88
1018.26	3429.12
1021.15	2558.5
1024.05	6334.62
1026.94	8108.62
1029.83	6238.88
1032.72	5923.62
1035.62	4708.75
1038.51	8342
1041.4	6426.25
1044.29	3820.5
1047.19	1555.88
1050.08	2578.5
1052.97	5774.5
1055.86	8116
1058.76	8530.25
1061.65	6176.88
1064.54	1115.62
1067.43	1729.25
1070.33	1857.62
1073.22	3953
1076.11	2309.5
1079.01	143.375
1081.9	1178
1084.79	2627.25
1087.68	4990.38
1090.58	4229.5
1093.47	5797.25
1096.36	7988
1099.26	8360
1102.15	8080.5
1105.04	8787.5
1107.93	8473.62
1110.83	5041.88
1113.72	2638.38
1116.61	3632.75
1119.5	1663.5
1122.4	689.5
1125.29	2284
1128.18	7833.25
1131.07	11226.1
1133.97	10398.1
1136.86	7381.5
1139.75	5685.38
1142.64	7068.75
1145.54	4435.88
1148.43	1367.12
1151.32	5564.62
1154.22	6157.12
1157.11	7479.75
1160	6181.25
1162.89	3871.38
1165.79	508
1168.68	473
1171.57	1136
1174.46	6726.12
1177.36	7141
1180.25	7234.25
1183.14	9221.5
1186.04	8439.12
1188.93	6230.75
1191.82	3906.12
1194.71	3844.62
1197.61	3836.88
1200.5	3289.38
1203.39	3955.38
1206.29	5014.5
1209.18	7143.12
1212.07	7169.75
1214.96	6070.5
1217.86	3982.5
1220.75	1684.88
1223.64	2029.75
1226.53	3614.75
1229.43	3704.75
1232.32	4673.62
1235.21	6787.62
1238.1	8913.75
1241	6611.25
1243.89	5238.75
1246.78	9284
1249.67	9063.62
1252.57	6123.38
1255.46	6125.5
1258.35	6048.62
1261.25	2828.38
1264.14	766.625
1267.03	696.375
1269.92	5602.62
1272.82	11692.9
1275.71	12455
1278.6	8688.12
1281.49	2982.88
1284.39	4016.88
1287.28	4362.88
1290.17	1595.12
1293.07	91.75
