Measurement: Raman, 785 nm, unoriented, Raman Data Processed
Mineral: Bonattite
Rruff sample: R070398
Ideal chemistry: Cu^2+^S^6+^O_4_3H_2_O
Locality: Undu mine, Nukundamu, Vanua Levu, Fiji
Source: Michael Scott
Description: Pale blue effluorescence associated with metallic yellow pyrite and metallic blue covellite
Raman shift (cm-1)	intensity
203.944	0
206.836	37.1875
209.729	47.7852
212.622	20.0947
215.514	32.7666
218.407	80.1523
221.3	78.4385
224.192	158.142
227.085	215.172
229.978	155.86
232.87	181.4
235.763	257.397
238.656	215.055
241.549	220.921
244.441	216.239
247.334	152.199
250.227	255.999
253.119	275.379
256.012	280.879
258.905	262.044
261.798	330.429
264.69	312.551
267.583	362.618
270.476	369.195
273.368	354.994
276.261	392.481
279.154	446.974
282.046	474.656
284.939	499.218
287.832	431.242
290.724	414.644
293.617	316.919
296.51	247.274
299.403	224.98
302.295	183.067
305.188	164.787
308.081	173.673
310.973	82.9111
313.866	105.385
316.759	209.05
319.651	64.958
322.544	105.016
325.437	20.4473
328.33	113.866
331.222	125.592
334.115	79.3008
337.008	56.3682
339.9	96.1494
342.793	6.82519
345.686	77.8564
348.579	30.0957
351.471	75.3955
354.364	84.4258
357.257	84.4238
360.149	49.8242
363.042	38.2275
365.935	30.002
368.827	4.61523
371.72	65.4981
374.613	52.2422
377.505	25.043
380.398	47.2783
383.291	7.34277
386.184	13.0693
389.076	9.80566
391.969	62.04
394.862	25.3438
397.754	52.8584
400.647	15.1699
403.54	38.8701
406.433	9.67773
409.325	71.5947
412.218	37.6162
415.111	73.6465
418.003	4.75293
420.896	76.4668
423.789	53.4668
426.681	88.5693
429.574	22.833
432.467	69.1787
435.36	62.1025
438.252	67.8389
441.145	84.8613
444.038	25.7061
446.93	73.6182
449.823	39.2022
452.716	127.766
455.608	91.1152
458.501	86.876
461.394	72.5137
464.286	51.081
467.179	44.5225
470.072	16.0088
472.965	56.0498
475.857	24.3237
478.75	9.41699
481.643	32.6973
484.535	38.7778
487.428	60.3164
490.321	55.2891
493.214	73.9121
496.106	77.3794
498.999	102.187
501.892	85.3584
504.784	96.9297
507.677	67.7954
510.57	97.8569
513.462	103.584
516.355	120.978
519.248	97.9775
522.14	37.1435
525.033	80.3188
527.926	43.874
530.819	47.8569
533.711	46.2188
536.604	31.0713
539.497	71.0151
542.389	3.94238
545.282	13.7075
548.175	17.2173
551.067	37.332
553.96	0.938965
556.853	12.0122
559.745	36.648
562.638	74.7481
565.531	5.28564
568.424	12.9883
571.316	137.467
574.209	48.6055
577.102	47.5977
579.994	35.2915
582.887	51.9473
585.78	74.2056
588.673	190.602
591.565	142.433
594.458	175.325
597.351	203.254
600.243	178.41
603.136	241.82
606.029	249.039
608.921	153.954
611.814	151.635
614.707	123.392
617.6	144.62
620.492	113.716
623.385	124.093
626.278	155.78
629.17	40.5688
632.063	58.9497
634.956	78.5664
637.848	75.4048
640.741	38.707
643.634	14.187
646.527	84.6602
649.419	14.7896
652.312	32.6162
655.205	14.623
658.097	50.8169
660.99	58.1099
663.883	73.6475
666.775	33.4658
669.668	73.9321
672.561	88.4771
675.454	40.999
678.346	132.261
681.239	85.6392
684.132	107.156
687.024	111.497
689.917	62.4477
692.81	102.645
695.702	96.0312
698.595	83.2275
701.488	51.8291
704.381	67.9775
707.273	79.4087
710.166	35.9326
713.059	37.2617
715.951	51.252
718.844	16.3325
721.737	38.0147
724.63	39.9277
727.522	25.2886
730.415	61.5815
733.308	20.1162
736.2	17.585
739.093	13.9258
741.986	65.9131
744.878	17.3413
747.771	27.2593
750.664	10.5693
753.557	35.898
756.449	65.5708
759.342	28.1509
762.235	53.9043
765.127	21.0156
768.02	24.2383
770.913	29.9521
773.805	50.5044
776.698	73.6187
779.591	32.2754
782.484	6.32422
785.376	41.606
788.269	13.6074
791.162	12.4966
794.054	54.8872
796.947	21.2144
799.84	3.12305
802.732	32.8433
805.625	34.041
808.518	99.6821
811.41	42.0889
814.303	11.6055
817.196	52.9629
820.089	7.38672
822.981	56.8023
825.874	29.9321
828.767	13.8569
831.659	46.8804
834.552	50.0142
837.445	9.77881
840.337	1.06103
843.23	18.5249
846.123	25.8369
849.016	36.4522
851.908	8.51953
854.801	40.3208
857.694	50.5005
860.586	40.21
863.479	12.9067
866.372	33.9258
869.264	54.7651
872.157	44.977
875.05	12.7471
877.943	10.7808
880.835	53.6836
883.728	43.9609
886.621	29.7373
889.513	23.9717
892.406	79.582
895.299	24.5557
898.192	100.212
901.084	10.0088
903.977	65.8848
906.87	77.4258
909.762	51.6162
912.655	79.2378
915.548	110.239
918.44	38.769
921.333	66.0303
924.226	31.3784
927.119	34.1055
930.011	59.1777
932.904	125.512
935.797	73.4507
938.689	4.96777
941.582	64.8809
944.475	50.7915
947.367	32.6558
950.26	48.5659
953.153	4.89746
956.045	18.6846
958.938	44.4438
961.831	4.38037
964.724	16.7432
967.616	14.5571
970.509	15.751
973.402	19.499
976.294	45.9375
979.187	17.4692
982.08	45.3852
984.972	48.3315
987.865	53.249
990.758	60.9585
993.651	74.7769
996.543	98.7314
999.436	23.8887
1002.33	107.446
1005.22	148.203
1008.11	156.849
1011.01	157.493
1013.9	223.861
1016.79	272.375
1019.68	272.606
1022.58	331.468
1025.47	396.407
1028.36	425.497
1031.26	396.145
1034.15	364.224
1037.04	269.687
1039.93	220.332
1042.83	176.829
1045.72	151.585
1048.61	129.81
1051.51	171.96
1054.4	140.875
1057.29	85.0059
1060.18	125.064
1063.08	54.876
1065.97	11.6733
1068.86	11.3628
1071.75	44.165
1074.65	19.5024
1077.54	88.7676
1080.43	13.0786
1083.32	68.5063
1086.22	60.6719
1089.11	133.125
1092	181.206
1094.89	170.611
1097.79	114.38
1100.68	52.3457
1103.57	86.708
1106.47	64.6621
1109.36	32.7036
1112.25	20.999
1115.14	21.0146
1118.04	15.9492
1120.93	43.9629
1123.82	21.0425
1126.71	5.94775
1129.61	7.89795
1132.5	41.2964
1135.39	78.7227
1138.29	39.2158
1141.18	49.9766
1144.07	55.3218
1146.96	73.4277
1149.86	77.5244
1152.75	89.7896
1155.64	85.2563
1158.53	23.8726
1161.43	29.0273
1164.32	54.2505
1167.21	59.9722
1170.11	32.6289
1173	37.4492
1175.89	8.13428
1178.78	35.6206
1181.68	101.49
1184.57	11.7139
1187.46	27.457
1190.35	59.9399
1193.25	58.3774
1196.14	58.2822
1199.03	76.2207
1201.92	64.5195
1204.82	83.6929
1207.71	57.352
1210.6	69.999
1213.5	76.6606
1216.39	17.4605
1219.28	6.29883
1222.17	44.813
1225.07	61.8369
1227.96	26.7236
1230.85	70.6289
1233.74	28.9458
1236.64	37.6323
1239.53	31.9907
1242.42	26.7642
