Measurement: Raman, 780 nm, unoriented, Raman Data Processed
Mineral: Bornite
Rruff sample: R070636
Ideal chemistry: Cu^1+^_5_Fe^3+^S^2-^_4_
Locality: mine 65, 180 m. level, Dzheskazgan mining district, central Kazakhstan
Source: Michael Scott
Description: Iridescent blue metallic crystal associated with calcite, malachite and hematite
Raman shift (cm-1)	intensity
157.129	0
160.021	19.6396
162.914	23.4003
165.807	44.7378
168.699	59.1754
171.592	1.18915
174.485	41.3144
177.377	9.44482
180.27	68.5962
183.163	41.1375
186.055	20.1835
188.948	9.35812
191.841	12.7673
194.734	28.6454
197.626	20.9203
200.519	13.5047
203.412	37.0968
206.304	39.4311
209.197	27.2054
212.09	17.4004
214.982	5.3703
217.875	10.5555
220.768	35.3511
223.661	16.1766
226.553	14.7182
229.446	26.4449
232.339	1.29816
235.231	11.6966
238.124	9.89386
241.017	17.3196
243.91	32.0176
246.802	24.1035
249.695	22.6863
252.588	33.7643
255.48	44.349
258.373	13.2021
261.266	36.4759
264.158	36.7512
267.051	29.8992
269.944	35.0152
272.837	28.5086
275.729	46.8219
278.622	52.2725
281.515	66.046
284.407	75.0244
287.3	66.0225
290.193	50.4828
293.085	57.5012
295.978	59.6029
298.871	53.6596
301.764	53.5621
304.656	40.4742
307.549	64.9076
310.442	66.5433
313.334	63.6281
316.227	67.6451
319.12	87.2582
322.012	79.3797
324.905	82.8104
327.798	89.8479
330.69	71.5186
333.583	111.902
336.476	78.4096
339.369	78.944
342.261	64.1663
345.154	80.6229
348.047	54.429
350.939	33.3676
353.832	24.9185
356.725	14.0452
359.618	27.213
362.51	27.9692
365.403	3.79105
368.296	21.9344
371.188	36.5641
374.081	24.1584
376.974	6.1752
379.866	29.0572
382.759	2.50269
385.652	18.0635
388.545	17.8987
391.437	10.6002
394.33	17.6203
397.223	49.2027
400.115	18.4262
403.008	31.9158
405.901	13.7528
408.793	19.7075
411.686	4.79483
414.579	13.571
417.471	45.2036
420.364	31.1536
423.257	36.2772
426.15	49.6291
429.042	37.0854
431.935	37.2157
434.828	28.431
437.72	6.62634
440.613	47.0273
443.506	48.2809
446.399	25.8223
449.291	23.0694
452.184	29.8369
455.077	15.5537
457.969	5.42023
460.862	18.5191
463.755	13.7648
466.647	6.05768
469.54	28.8348
472.433	29.0629
475.325	8.53082
478.218	10.279
481.111	37.7023
484.004	17.683
486.896	1.18152
489.789	40.2913
492.682	11.2319
495.574	34.154
498.467	17.2201
501.36	22.5843
504.252	1.95372
507.145	52.4042
510.038	43.4734
512.931	52.4083
515.823	41.8872
518.716	45.897
521.609	28.185
524.501	18.0986
527.394	18.1968
530.287	1.53339
533.179	41.2129
536.072	15.8164
538.965	10.8285
541.858	15.2489
544.75	2.07753
547.643	5.36156
550.536	7.80579
553.428	3.58377
556.321	6.60495
559.214	42.8204
562.106	17.8463
564.999	21.2559
567.892	2.12676
570.785	5.67905
573.677	6.10573
576.57	17.3924
579.463	17.398
582.355	11.5018
585.248	38.6082
588.141	35.9903
591.034	27.8343
593.926	26.9697
596.819	19.8047
599.712	37.4937
602.604	25.3618
605.497	25.264
608.39	12.1674
611.282	1.48415
614.175	34.8696
617.068	14.184
619.961	14.953
622.853	2.409
625.746	33.7875
628.639	6.88995
631.531	15.9953
634.424	4.76996
637.317	9.16802
640.209	2.74161
643.102	5.54544
645.995	11.0057
648.888	18.2515
651.78	31.2102
654.673	33.1716
657.566	5.04825
660.458	14.3518
663.351	26.7363
666.244	48.7308
669.136	13.7623
672.029	31.6269
674.922	9.47519
677.814	15.3899
680.707	1.47156
683.6	25.7668
686.493	19.892
689.385	26.0148
692.278	5.99365
695.171	35.3581
698.063	19.4618
700.956	4.17375
703.849	25.5342
706.741	36.8455
709.634	29.6084
712.527	17.3815
715.42	35.0795
718.312	27.4998
721.205	42.6915
724.098	22.0294
726.99	4.09067
729.883	12.9308
732.776	26.5424
735.668	23.0264
738.561	13.5323
741.454	4.30881
744.347	15.3255
747.239	7.32359
750.132	0.442413
753.025	2.68999
755.917	1.92152
758.81	39.9041
761.703	35.9361
764.596	19.5528
767.488	12.0767
770.381	0.716522
773.274	17.039
776.166	17.1841
779.059	26.9679
781.952	34.1964
784.844	25.7885
787.737	5.72403
790.63	13.1547
793.523	33.9143
796.415	3.19733
799.308	11.3009
802.201	26.5758
805.093	10.152
807.986	20.8234
810.879	24.9383
813.771	6.88632
816.664	6.31996
819.557	17.4075
822.449	4.44203
825.342	5.81998
828.235	8.5014
831.128	2.10652
834.02	33.2479
836.913	26.3108
839.806	20.7137
842.698	4.16269
845.591	13.7683
848.484	40.8976
851.376	15.8014
854.269	35.3704
857.162	17.8394
860.055	20.6385
862.947	12.2895
865.84	9.69923
868.733	31.8351
871.625	22.1871
874.518	20.7746
877.411	23.1483
880.303	11.1003
883.196	10.3821
886.089	34.657
888.982	9.89192
891.874	5.29004
894.767	16.4673
897.66	16.1975
900.552	35.1686
903.445	17.4507
906.338	2.31581
909.231	21.7758
912.123	1.7744
915.016	19.2816
917.909	11.8143
920.801	29.7661
923.694	13.7712
926.587	19.0449
929.479	27.4019
932.372	11.1029
935.265	24.8534
938.158	9.58653
941.05	14.8566
943.943	28.5901
946.836	12.781
949.728	14.2058
952.621	21.446
955.514	21.7217
958.406	17.3544
961.299	17.1613
964.192	24.5423
967.085	33.2807
969.977	38.4983
972.87	3.32933
975.763	13.2595
978.655	19.878
981.548	35.1945
984.441	6.9363
987.333	36.1384
990.226	26.6252
993.119	36.7919
996.011	12.2904
998.904	24.3333
1001.8	35.9911
1004.69	13.7377
1007.58	3.26503
1010.48	21.4793
1013.37	9.63826
1016.26	26.5203
1019.15	13.8696
1022.05	23.4774
1024.94	22.8893
1027.83	24.8916
1030.72	32.3407
1033.62	26.8402
1036.51	21.2029
1039.4	24.7948
1042.3	18.4714
1045.19	15.6666
1048.08	24.8377
1050.97	16.5548
1053.87	27.3118
1056.76	14.4186
1059.65	2.62518
1062.54	0.194931
1065.44	20.7298
1068.33	7.28886
1071.22	6.21345
1074.11	2.70659
1077.01	11.7874
1079.9	28.1123
1082.79	41.1213
1085.68	23.5297
1088.58	26.1479
1091.47	13.3934
1094.36	11.671
1097.26	5.49246
1100.15	28.4278
1103.04	21.9853
1105.93	10.6107
1108.83	5.94081
1111.72	18.5323
1114.61	21.4492
1117.51	13.4812
1120.4	11.3169
1123.29	7.84706
1126.18	2.16763
1129.08	5.70113
1131.97	16.8087
1134.86	22.3082
1137.75	18.1766
1140.65	17.9662
1143.54	32.6683
1146.43	4.3011
1149.33	8.84756
1152.22	0.827118
1155.11	3.38794
1158	17.7837
1160.89	18.0787
1163.79	18.8027
1166.68	9.57043
1169.57	29.9971
1172.47	13.1304
1175.36	16.6633
1178.25	28.5313
1181.14	7.60178
1184.04	23.1849
1186.93	6.58337
1189.82	13.1424
1192.71	13.8604
1195.61	5.20572
1198.5	32.9595
1201.39	27.6033
1204.29	8.81413
1207.18	29.0742
1210.07	28.4444
1212.96	8.17706
1215.86	2.26576
1218.75	2.0535
1221.64	22.8912
1224.54	2.97821
1227.43	8.65466
1230.32	33.9004
1233.21	18.9442
1236.11	18.3801
1239	40.2989
1241.89	11.7202
1244.78	26.0017
1247.68	27.0978
1250.57	17.2667
1253.46	14.4659
1256.35	12.6597
1259.25	21.2445
1262.14	28.368
1265.03	44.7696
