Measurement: Raman, 780 nm, unoriented, Raman Data Processed
Mineral: Bornite
Rruff sample: R050322
Ideal chemistry: Cu^1+^_5_Fe^3+^S^2-^_4_
Locality: Bethlehem Copper mine, Highland Valley, Logan Lake, British Columbia, Canada
Source: Lloyd Twaites
Description: Irridescent purple metallic massive
Measured chemistry: Cu_4.97_Fe_1.03_S_4.00_
Raman shift (cm-1)	intensity
117.122	0
120.497	1.66169
123.871	3.82551
127.246	4.04455
130.621	1.24092
133.996	1.34989
137.371	0.299319
140.746	0.723097
144.12	0.315088
147.495	0.665706
150.87	2.62633
154.245	3.60582
157.62	2.67253
160.994	2.25704
164.369	1.23766
167.744	0.469064
171.119	2.40869
174.494	1.03704
177.869	1.95365
181.243	0.401134
184.618	0.784463
187.993	0.86527
191.368	0.373532
194.743	2.03584
198.117	0.363144
201.492	0.283681
204.867	0.65047
208.242	1.23809
211.617	3.3919
214.992	1.77526
218.366	1.49402
221.741	3.16404
225.116	2.64326
228.491	1.29152
231.866	1.24874
235.24	1.25961
238.615	1.65719
241.99	2.25842
245.365	1.49634
248.74	2.37868
252.114	1.3169
255.489	0.642566
258.864	0.701639
262.239	0.576048
265.614	1.13917
268.988	1.17335
272.363	1.61549
275.738	3.16972
279.113	0.485868
282.488	2.45821
285.863	4.91379
289.237	3.56834
292.612	2.94007
295.987	1.55707
299.362	1.24751
302.737	1.85715
306.111	1.34632
309.486	0.244884
312.861	0.949631
316.236	0.299152
319.611	0.441311
322.986	1.07556
326.36	2.44417
329.735	1.05356
333.11	1.75206
336.485	0.833274
339.86	1.34889
343.234	0.500667
346.609	1.49507
349.984	1.16656
353.359	0.168253
356.734	1.09407
360.108	1.5121
363.483	0.813794
366.858	0.763474
370.233	1.6447
373.608	1.42142
376.983	1.51612
380.357	0.229294
383.732	1.61281
387.107	1.65078
390.482	0.507195
393.857	1.89874
397.231	1.69605
400.606	0.658331
403.981	1.24826
407.356	0.935565
410.731	2.01681
414.106	3.18843
417.48	0.592482
420.855	2.06638
424.23	1.49002
427.605	1.1037
430.98	0.872082
434.354	0.704007
437.729	0.053387
441.104	0.804588
444.479	1.43651
447.854	1.80343
451.228	1.23314
454.603	1.40301
457.978	0.754375
461.353	1.96305
464.728	2.06859
468.103	1.99782
471.477	1.62179
474.852	1.27849
478.227	1.56701
481.602	1.54558
484.977	0.068997
488.351	1.42535
491.726	2.23953
495.101	0.885356
498.476	1.47342
501.851	1.59725
505.226	1.18646
508.6	2.03928
511.975	0.344576
515.35	1.35081
518.725	1.10972
522.1	1.6318
525.474	0.519123
528.849	0.941274
532.224	0.856943
535.599	1.92827
538.974	0.858021
542.348	2.05987
545.723	0.531004
549.098	0.299301
552.473	0.654495
555.848	0.665456
559.222	0.391769
562.597	0.081686
565.972	0.657014
569.347	1.93559
572.722	0.251207
576.097	0.871498
579.471	1.28075
582.846	1.88496
586.221	1.21282
589.596	1.0998
592.971	1.98288
596.346	2.34727
599.72	1.05613
603.095	1.54962
606.47	1.03534
609.845	1.53567
613.22	2.64051
616.594	1.5464
619.969	0.456544
623.344	1.3938
626.719	1.82558
630.094	1.3248
633.468	0.791996
636.843	0.741902
640.218	2.65663
643.593	2.44494
646.968	1.81743
650.342	1.60046
653.717	2.74555
657.092	1.48533
660.467	2.74158
663.842	0.093237
667.217	3.58738
670.591	2.50907
673.966	0.611563
677.341	0.476862
680.716	1.78486
684.091	0.660027
687.466	1.29855
690.84	1.914
694.215	1.96756
697.59	1.32075
700.965	1.72595
704.34	0.333987
707.714	2.50315
711.089	0.083662
714.464	2.75102
717.839	0.368084
721.214	1.30385
724.588	1.30154
727.963	0.194901
731.338	0.181426
734.713	1.41501
738.088	0.1912
741.462	1.71254
744.837	0.221624
748.212	2.41383
751.587	0.952983
754.962	1.45325
758.337	1.99582
761.711	1.51708
765.086	0.934926
768.461	2.71481
771.836	0.670896
775.211	0.717664
778.586	1.08808
781.96	0.918678
785.335	0.317001
788.71	0.41077
792.085	1.16572
795.46	1.04445
798.834	1.53012
802.209	2.99966
805.584	4.17855
808.959	4.81603
812.334	7.38497
815.708	9.75206
819.083	6.73985
822.458	4.5234
825.833	1.92944
829.208	2.32373
832.582	0.600583
835.957	1.91211
839.332	0.698542
842.707	0.531256
846.082	1.47229
849.457	1.64569
852.831	0.325366
856.206	1.4199
859.581	1.83439
862.956	1.107
866.331	1.98269
869.706	0.587535
873.08	1.20742
876.455	1.75125
879.83	0.885611
883.205	1.20758
886.58	2.29826
889.954	1.66033
893.329	1.2645
896.704	0.867293
900.079	3.14299
903.454	1.42507
906.828	1.61473
910.203	0.641902
913.578	1.79345
916.953	2.29701
920.328	1.99849
923.702	2.26627
927.077	1.83622
930.452	1.42852
933.827	2.43164
937.202	2.66074
940.577	1.73762
943.951	0.422853
947.326	1.96706
950.701	1.81182
954.076	1.27508
957.451	1.78983
960.825	0.470202
964.2	1.68122
967.575	0.612068
970.95	0.684584
974.325	2.32302
977.699	1.41683
981.074	1.79658
984.449	1.6201
987.824	1.14543
991.199	4.07697
994.574	4.17579
997.948	2.50758
1001.32	4.5e-05
1004.7	1.24972
1008.07	1.34919
1011.45	1.26621
1014.82	1.21566
1018.2	2.41883
1021.57	0.535887
1024.95	3.37366
1028.32	0.334895
1031.7	1.47728
1035.07	1.65272
1038.45	1.58576
1041.82	1.78682
1045.2	2.06816
1048.57	1.54845
1051.94	1.98973
1055.32	0.233616
1058.69	2.02386
1062.07	1.31735
1065.44	0.826233
1068.82	1.0126
1072.19	0.473239
1075.57	1.19847
1078.94	0.620065
1082.32	0.437916
1085.69	1.40698
1089.07	1.0004
1092.44	0.736797
1095.82	0.056791
1099.19	0.242024
1102.57	2.94133
1105.94	0.875715
1109.32	1.85942
1112.69	1.72076
1116.07	1.64808
1119.44	1.47636
1122.82	1.35761
1126.19	0.363259
1129.57	1.49948
1132.94	2.12342
1136.32	0.809919
1139.69	0.572419
1143.07	0.357816
1146.44	1.22897
1149.82	2.3801
1153.19	0.745922
1156.57	0.589527
1159.94	0.436574
1163.31	0.976694
1166.69	1.08003
1170.06	1.28956
1173.44	2.04686
1176.81	1.50103
1180.19	2.36862
1183.56	2.02637
1186.94	1.03331
1190.31	1.12164
1193.69	0.28056
1197.06	2.21547
1200.44	1.30297
1203.81	1.84519
1207.19	1.81089
1210.56	1.20337
1213.94	0.836576
1217.31	3.01041
1220.69	2.82999
1224.06	0.61082
1227.44	1.6426
1230.81	1.38385
1234.18	1.34885
1237.56	2.33074
1240.93	1.55272
1244.31	1.63041
1247.68	2.38547
1251.06	1.82499
1254.43	2.52484
1257.81	1.21723
1261.18	2.30986
1264.56	1.45058
1267.93	1.48202
1271.31	2.5809
1274.68	1.12778
1278.06	0.296142
1281.43	1.72672
1284.81	0
