Measurement: Raman, 532 nm, unoriented, Raman Data Processed
Mineral: Bornite
Rruff sample: R070636
Ideal chemistry: Cu^1+^_5_Fe^3+^S^2-^_4_
Locality: mine 65, 180 m. level, Dzheskazgan mining district, central Kazakhstan
Source: Michael Scott
Description: Iridescent blue metallic crystal associated with calcite, malachite and hematite
Raman shift (cm-1)	intensity
141.34	0
144.233	46.2767
147.126	37.4303
150.018	68.3256
152.911	0.534088
155.804	55.3882
158.697	56.5351
161.589	49.9699
164.482	26.795
167.375	27.0627
170.267	7.2955
173.16	38.2756
176.053	45.8096
178.946	22.1672
181.838	54.9986
184.731	33.7327
187.624	69.1674
190.516	29.2273
193.409	13.2325
196.302	19.5165
199.194	38.0839
202.087	3.67673
204.98	36.6147
207.873	10.525
210.765	33.0658
213.658	15.5156
216.551	31.089
219.443	45.3345
222.336	15.6249
225.229	7.1853
228.121	7.80377
231.014	1.18811
233.907	9.879
236.799	5.74014
239.692	28.7614
242.585	17.0756
245.478	17.2147
248.37	19.5064
251.263	31.5022
254.156	25.8879
257.048	27.5311
259.941	31.4283
262.834	7.5022
265.726	7.14059
268.619	42.1044
271.512	41.441
274.405	5.47562
277.297	56.3926
280.19	19.7706
283.083	43.9851
285.975	20.72
288.868	40.1572
291.761	32.7726
294.654	46.9849
297.546	28.9979
300.439	11.4615
303.332	28.4166
306.224	44.0388
309.117	43.3895
312.01	47.4863
314.902	16.212
317.795	22.5118
320.688	60.1814
323.58	36.9932
326.473	41.2709
329.366	66.629
332.259	51.4868
335.151	62.7769
338.044	77.6027
340.937	94.6975
343.829	43.8116
346.722	43.1514
349.615	41.2927
352.507	13.8408
355.4	53.6111
358.293	20.6841
361.186	32.9279
364.078	35.344
366.971	17.2697
369.864	33.4794
372.756	27.6567
375.649	9.31863
378.542	15.3062
381.434	14.8678
384.327	1.99707
387.22	1.62991
390.113	37.1445
393.005	13.4876
395.898	10.6721
398.791	17.3062
401.683	37.4344
404.576	11.7315
407.469	4.21024
410.361	21.8981
413.254	33.2703
416.147	28.6047
419.04	49.0607
421.932	25.8662
424.825	28.6319
427.718	36.9219
430.61	19.9977
433.503	14.251
436.396	30.1376
439.288	46.2563
442.181	31.9283
445.074	47.2749
447.967	5.70837
450.859	17.527
453.752	47.4919
456.645	32.0573
459.537	11.6207
462.43	25.2291
465.323	0.867859
468.215	30.1433
471.108	14.8413
474.001	5.30457
476.894	14.1526
479.786	31.6781
482.679	2.12909
485.572	62.9573
488.464	21.7895
491.357	17.6623
494.25	5.68243
497.142	17.0819
500.035	57.4957
502.928	42.2509
505.82	81.3207
508.713	48.5657
511.606	36.4388
514.499	13.0515
517.391	11.9973
520.284	28.226
523.177	13.3484
526.069	31.4037
528.962	15.7281
531.855	11.6738
534.747	12.6097
537.64	16.2898
540.533	1.54388
543.426	19.7289
546.318	18.8568
549.211	12.3303
552.104	1.78442
554.996	32.2219
557.889	17.6312
560.782	15.0181
563.674	13.4339
566.567	12.6518
569.46	4.19098
572.353	31.7183
575.245	21.3389
578.138	26.2244
581.031	28.6116
583.923	27.8544
586.816	33.4246
589.709	40.7609
592.601	41.6269
595.494	38.9714
598.387	26.9843
601.28	41.2092
604.172	20.6892
607.065	11.8807
609.958	30.9172
612.85	2.461
615.743	4.7854
618.636	24.329
621.529	22.4948
624.421	27.5912
627.314	2.03302
630.207	8.72199
633.099	23.3287
635.992	19.6321
638.885	0.242737
641.777	8.29755
644.67	33.8225
647.563	32.2924
650.456	54.84
653.348	17.3229
656.241	37.9893
659.134	33.3382
662.026	55.4768
664.919	46.9087
667.812	44.7289
670.704	37.1876
673.597	38.3598
676.49	30.1202
679.382	14.1368
682.275	30.0141
685.168	1.91754
688.061	12.967
690.953	20.8239
693.846	21.7877
696.739	32.8779
699.631	25.2766
702.524	37.6999
705.417	18.9916
708.309	37.9429
711.202	51.722
714.095	46.5449
716.987	33.2307
719.88	23.1656
722.773	30.9005
725.666	0.201538
728.558	7.67114
731.451	31.8571
734.344	29.7962
737.236	18.5309
740.129	13.6215
743.022	3.90216
745.915	33.5652
748.807	6.12463
751.7	23.1555
754.593	5.18579
757.485	32.2348
760.378	15.8648
763.271	24.5197
766.163	2.29034
769.056	4.75751
771.949	16.5386
774.842	21.2233
777.734	13.3619
780.627	25.0846
783.52	27.5743
786.412	10.1479
789.305	16.3845
792.198	20.7463
795.091	2.51233
797.983	35.7977
800.876	29.6562
803.769	17.7384
806.661	33.6401
809.554	35.8028
812.447	32.1494
815.339	15.8301
818.232	26.6807
821.125	9.35303
824.017	16.4502
826.91	16.7977
829.803	12.6169
832.696	24.9258
835.588	33.1887
838.481	0.392517
841.374	17.1449
844.266	23.7036
847.159	21.2105
850.052	16.7022
852.944	2.01648
855.837	33.4813
858.73	34.1158
861.622	6.93304
864.515	31.0922
867.408	13.182
870.301	31.023
873.193	10.7794
876.086	5.79425
878.979	16.2146
881.871	29.5331
884.764	25.2044
887.657	47.0172
890.549	15.4812
893.442	4.11975
896.335	19.9818
899.228	2.75085
902.12	11.9713
905.013	32.1052
907.906	6.57251
910.798	17.4134
913.691	48.2776
916.584	17.6708
919.476	15.1877
922.369	24.6854
925.262	21.4498
928.155	8.4939
931.047	5.65888
933.94	9.96429
936.833	19.2313
939.725	16.6376
942.618	13.1798
945.511	8.88849
948.404	38.039
951.296	11.6986
954.189	2.41205
957.082	15.361
959.974	12.0002
962.867	19.2772
965.76	23.3618
968.652	6.74475
971.545	26.0414
974.438	22.6307
977.331	19.0298
980.223	36.0966
983.116	31.0329
986.009	18.8013
988.901	41.9884
991.794	9.6037
994.687	23.4311
997.579	37.9091
1000.47	29.118
1003.37	5.76227
1006.26	42.1854
1009.15	17.8492
1012.04	12.5604
1014.94	1.22022
1017.83	9.37982
1020.72	23.2354
1023.61	30.4797
1026.51	24.6595
1029.4	17.9827
1032.29	35.0133
1035.18	31.347
1038.08	27.8394
1040.97	65.2107
1043.86	27.1356
1046.76	2.12518
1049.65	14.2582
1052.54	13.7134
1055.43	4.46826
1058.33	32.0157
1061.22	24.9132
1064.11	30.1183
1067	22.7141
1069.9	29.1777
1072.79	3.70319
1075.68	28.5908
1078.58	16.6133
1081.47	22.4941
1084.36	2.45148
1087.25	42.4228
1090.15	11.5399
1093.04	21.2194
1095.93	30.8443
1098.82	16.0235
1101.72	3.94013
1104.61	20.7613
1107.5	26.0621
1110.39	36.4894
1113.29	36.2922
1116.18	22.0461
1119.07	46.2931
1121.96	14.8084
1124.86	34.1144
1127.75	0.329712
1130.64	13.1014
1133.54	14.2698
1136.43	8.74768
1139.32	30.0916
1142.21	16.1912
1145.11	11.697
1148	21.0973
1150.89	13.7315
1153.79	45.0644
1156.68	1.41901
1159.57	19.9048
1162.46	25.9089
1165.36	0.808533
1168.25	11.6625
1171.14	11.498
1174.03	9.59039
1176.93	20.1308
1179.82	28.5787
1182.71	4.18866
1185.61	30.9974
1188.5	25.6568
1191.39	28.8975
1194.28	8.47846
1197.18	14.7103
1200.07	24.8514
1202.96	14.4267
1205.85	3.62775
1208.75	25.3234
1211.64	28.01
1214.53	16.046
1217.42	37.7172
1220.32	37.8431
1223.21	0.122253
1226.1	4.93549
1228.99	24.8324
1231.89	40.2107
1234.78	4.97919
1237.67	22.9428
1240.57	30.9757
1243.46	29.9915
1246.35	17.0698
1249.24	32.2526
1252.14	39.86
1255.03	33.1442
1257.92	35.1677
1260.82	48.1125
1263.71	33.0456
1266.6	30.1342
1269.49	31.6818
1272.39	36.3715
1275.28	0.645081
