Measurement: Raman, 785 nm, unoriented, Raman Data Processed
Mineral: Boromuscovite
Rruff sample: R070107
Ideal chemistry: KAl_2_(Si_3_B)O_10_(OH)_2_
Locality: Little 3 mine, Ramona, California, USA
Source: Jeffrey E. Patterson
Description: White fine-grained micaceous on elbaite
Raman shift (cm-1)	intensity
202.306	0
205.198	58.375
208.091	58.7891
210.984	95.6602
213.876	54.7227
216.769	20.8086
219.662	389.035
222.555	497.832
225.447	541.156
228.34	204.762
231.233	435.594
234.125	583.711
237.018	568.519
239.911	653.672
242.804	751.551
245.696	632.449
248.589	701.43
251.482	578.898
254.374	679.363
257.267	749.113
260.16	869.715
263.052	772.746
265.945	907.32
268.838	867.512
271.731	788.051
274.623	885.879
277.516	905.453
280.409	897.676
283.301	1014.27
286.194	1094.83
289.087	972.551
291.979	699.57
294.872	633.109
297.765	489.551
300.658	332.769
303.55	509.586
306.443	599.285
309.336	520.449
312.228	678.609
315.121	386.828
318.014	354.684
320.906	286.617
323.799	345.07
326.692	542.047
329.584	502.922
332.477	393.961
335.37	312.875
338.262	170.25
341.155	265.844
344.048	224.043
346.941	119.93
349.833	323.922
352.726	261.379
355.619	355.484
358.511	117.562
361.404	239.359
364.297	125.938
367.19	138.555
370.082	223.203
372.975	150.574
375.868	267.488
378.76	143.258
381.653	149.32
384.546	102.91
387.438	70.8281
390.331	27.7969
393.224	101.281
396.116	68.5078
399.009	201.039
401.902	37.9414
404.795	97.4102
407.687	72.082
410.58	175.293
413.473	33.6992
416.365	167.555
419.258	219.684
422.151	404.156
425.043	275.129
427.936	322.793
430.829	60.8086
433.722	380.875
436.614	176.926
439.507	237.883
442.4	213.203
445.292	104.785
448.185	202.168
451.078	398.34
453.971	325.809
456.863	188.371
459.756	106.57
462.649	134.859
465.541	280.789
468.434	237.074
471.327	157.34
474.219	354.938
477.112	35.8867
480.005	133.883
482.898	9.23828
485.79	258.926
488.683	289.379
491.576	202.289
494.468	246.156
497.361	126.008
500.254	85.1562
503.147	101.094
506.039	215.648
508.932	84.4531
511.825	197.254
514.717	157.516
517.61	14.2578
520.503	57.1953
523.395	193.066
526.288	156.856
529.181	144.016
532.073	76.8516
534.966	226.668
537.859	121.191
540.752	224.523
543.644	236.148
546.537	159.164
549.43	100.258
552.322	185.062
555.215	74.0703
558.108	250.699
561	393.773
563.893	64.7539
566.786	222.258
569.678	234.773
572.571	202.606
575.464	201.484
578.357	344.883
581.249	311.465
584.142	323.438
587.035	64.8398
589.927	194.297
592.82	118.481
595.713	121.824
598.606	156.43
601.498	156.156
604.391	292.34
607.284	166.086
610.176	35.8203
613.069	222.766
615.962	88.7617
618.854	26.9453
621.747	86.9297
624.64	140.398
627.533	120.465
630.425	254.707
633.318	211.812
636.211	119.004
639.103	66.4297
641.996	62.6523
644.889	185.402
647.781	22.0234
650.674	97.2891
653.567	187.156
656.46	110.625
659.352	323.66
662.245	177.109
665.138	43.8359
668.03	179.969
670.923	12.7422
673.816	232.961
676.708	177.559
679.601	269.785
682.494	299.117
685.386	169.469
688.279	249.676
691.172	205.68
694.065	203.453
696.957	334.453
699.85	445.269
702.743	520.84
705.635	380.176
708.528	478.523
711.421	334.481
714.313	344.938
717.206	282.305
720.099	394.453
722.992	343.543
725.884	280.93
728.777	291.277
731.67	324.953
734.562	151.137
737.455	145.617
740.348	131.828
743.24	210.168
746.133	282.648
749.026	334.445
751.919	282.656
754.811	276.059
757.704	183.332
760.597	109.922
763.489	87.0195
766.382	210.992
769.275	102.379
772.168	220.738
775.06	78.3086
777.953	57.1484
780.846	20.9102
783.738	57.0508
786.631	45.5898
789.524	82.8633
792.416	186.301
795.309	6.08203
798.202	60.2617
801.095	30.9102
803.987	93.7305
806.88	85.0898
809.773	29.3125
812.665	154.137
815.558	209.516
818.451	181.773
821.343	34.3086
824.236	226.188
827.129	131.981
830.021	217.766
832.914	174.352
835.807	158.477
838.7	230.164
841.592	33.9258
844.485	258.777
847.378	222.332
850.27	190.59
853.163	105.731
856.056	214.242
858.948	154.152
861.841	126.172
864.734	235.106
867.627	146.812
870.519	144.535
873.412	78.5586
876.305	123.742
879.197	163.75
882.09	133.914
884.983	87.4961
887.875	68.4062
890.768	194.746
893.661	165.301
896.554	161.992
899.446	159.586
902.339	70.6211
905.232	84.9102
908.125	119.078
911.017	174.129
913.91	513.125
916.803	129.914
919.695	64.6914
922.588	145.445
925.481	204.707
928.373	154.394
931.266	18.1094
934.159	56.2109
937.052	250.152
939.944	46.1641
942.837	25.3438
945.73	37.9453
948.622	182.027
951.515	99.668
954.408	123.238
957.3	153.746
960.193	260.977
963.086	198.008
965.979	154.945
968.871	15.3672
971.764	3.73438
974.657	8.82812
977.549	54.4102
980.442	329.625
983.335	345.301
986.227	131.066
989.12	243.969
992.013	215.754
994.905	72.2969
997.798	153.324
1000.69	342.574
1003.58	146.371
1006.48	233.039
1009.37	190.777
1012.26	107.129
1015.15	81.7227
1018.05	29.4062
1020.94	5.14062
1023.83	153.523
1026.72	59.9141
1029.62	225.387
1032.51	42.8711
1035.4	88.9805
1038.3	87.1055
1041.19	69.1797
1044.08	41.6836
1046.97	60.6367
1049.87	112.738
1052.76	45.2227
1055.65	35.8711
1058.55	170.109
1061.44	140.582
1064.33	171.234
1067.22	200.137
1070.12	135.551
1073.01	142.707
1075.9	179.379
1078.79	198.75
1081.69	270.676
1084.58	23.8047
1087.47	139.711
1090.37	186.406
1093.26	190.176
1096.15	231.731
1099.04	131.156
1101.93	62.2109
1104.83	258.719
1107.72	0.210938
1110.61	142.129
1113.51	125.859
1116.4	61.8867
1119.29	54.6992
1122.18	131.766
1125.08	284.09
1127.97	35.5508
1130.86	191.387
1133.76	257.562
1136.65	148.727
1139.54	220.438
1142.43	124.516
1145.33	73.1133
1148.22	207.629
1151.11	265.863
1154	209.477
1156.9	119.953
1159.79	144.746
1162.68	156.356
1165.58	123.953
1168.47	83.1094
1171.36	152.231
1174.25	107.051
1177.15	237.496
1180.04	54.8125
1182.93	48.2188
1185.82	34.1641
1188.72	197.019
1191.61	220.863
1194.5	145.094
1197.39	182.477
1200.29	79.0664
1203.18	135.629
1206.07	174.5
1208.96	128.801
1211.86	220.016
1214.75	198.816
1217.64	198.449
1220.54	125.164
1223.43	70.8242
1226.32	118.144
1229.21	43.9922
1232.11	175.449
1235	10.3086
