Measurement: Raman, 532 nm, unoriented, Raman Data Processed
Mineral: Borocookeite
Rruff sample: R080076
Ideal chemistry: LiAl_4_(Si_3_B)O_10_(OH)_8_
Locality: Malkhan Range, Central Transbaikal Region, Russia
Source: Michael Scott
Description: Cream-colored earthy coating on tourmaline crystal
Raman shift (cm-1)	intensity
143.886	0
147.261	18.7246
150.636	83.9443
154.011	140.655
157.386	167.632
160.76	145.89
164.135	152.169
167.51	160.015
170.885	182.541
174.26	149.291
177.634	158.137
181.009	134.06
184.384	123.339
187.759	134.939
191.134	104.608
194.508	97.6269
197.883	33.0117
201.258	18.1836
204.633	0.208008
208.008	11.999
211.382	4.79492
214.757	12.8242
218.132	4.10254
221.507	4.5
224.882	11.3193
228.257	11.5586
231.631	42.8818
235.006	24.9326
238.381	65.8272
241.756	58.1348
245.131	48.4326
248.506	11.3018
251.88	61.2236
255.255	75.9902
258.63	51.4775
262.005	48.6621
265.38	53.5908
268.754	71.3662
272.129	75.3603
275.504	72.291
278.879	98.7334
282.254	91.3887
285.628	58.1377
289.003	55.1123
292.378	59.04
295.753	35.3945
299.128	18.2773
302.503	32.7402
305.877	13.4424
309.252	3.07324
312.627	8.66211
316.002	26.1592
319.377	67.3008
322.752	43.1113
326.126	37.9014
329.501	44.1836
332.876	41.3086
336.251	27.9268
339.625	85.0527
343	95.0234
346.375	123.064
349.75	75.4561
353.125	44.0342
356.5	10.9102
359.875	51.0059
363.249	37.7178
366.624	72.5732
369.999	42.291
373.374	17.4092
376.748	23.0322
380.123	21.5918
383.498	84.0439
386.873	23.7139
390.248	16.2266
393.623	19.3477
396.997	8.51367
400.372	29.2715
403.747	19.834
407.122	11.5684
410.497	25.8584
413.872	56.5801
417.246	111.941
420.621	59.998
423.996	14.9922
427.371	13.2842
430.746	9.25
434.12	24.6582
437.495	55.0527
440.87	27.6553
444.245	53.0234
447.62	40.4932
450.995	24.293
454.369	22.2373
457.744	7.12402
461.119	24.1289
464.494	19.873
467.869	52.9277
471.243	43.6143
474.618	54.919
477.993	77.7822
481.368	92.6152
484.743	21.9746
488.118	11.2559
491.492	45.0566
494.867	92.4531
498.242	51.5
501.617	42.1855
504.991	55.4453
508.366	33.2344
511.741	1.56055
515.116	6.23828
518.491	48.4648
521.866	57.1055
525.24	61.5996
528.615	30.3379
531.99	16.1074
535.365	37.6953
538.74	40.5039
542.115	71.3047
545.489	37.3691
548.864	21.2891
552.239	15.7051
555.614	12.1719
558.989	10.6836
562.363	54.1035
565.738	66.6914
569.113	38.3379
572.488	30.4277
575.863	61.1973
579.237	35.7051
582.612	64.4492
585.987	66.7383
589.362	73.5606
592.737	88.7969
596.112	64.3887
599.486	23.7969
602.861	61.1953
606.236	68.9609
609.611	45.3184
612.986	56.3301
616.361	46.6914
619.735	73.9121
623.11	70.6309
626.485	28.2852
629.86	6.49023
633.235	16.5195
636.609	34.6914
639.984	25.0391
643.359	36.7559
646.734	68.9453
650.109	69.5781
653.484	16.418
656.858	12.9023
660.233	2.09961
663.608	17.8145
666.983	37.9102
670.357	47.7812
673.732	115.482
677.107	103.603
680.482	86.7441
683.857	35.4863
687.232	9.50195
690.606	28.9551
693.981	59.6875
697.356	62.9375
700.731	72.2988
704.106	84.3457
707.481	76.7598
710.855	113.699
714.23	119.078
717.605	74.1523
720.98	51.9863
724.355	61.1855
727.729	78.2578
731.104	45.8477
734.479	23.6562
737.854	8.84961
741.229	36.6758
744.604	37.7539
747.978	57.0469
751.353	21.2402
754.728	49.4766
758.103	30.2793
761.477	29.6816
764.852	23.7969
768.227	19.2324
771.602	53.916
774.977	21.1172
778.352	6.29102
781.726	30.25
785.101	43.6875
788.476	60.5254
791.851	39.1055
795.226	20.4922
798.601	8.19922
801.975	21.3887
805.35	29.4844
808.725	0.482422
812.1	28.8945
815.475	31.5586
818.849	72.082
822.224	60.7246
825.599	35.543
828.974	41.1914
832.349	23.3691
835.723	37.0879
839.098	33.0117
842.473	56.168
845.848	13.4551
849.223	1.25977
852.598	1.88867
855.972	50.8359
859.347	62.5977
862.722	54.7207
866.097	0.958984
869.472	7.64453
872.846	41.7031
876.221	50.5547
879.596	32.6367
882.971	10.1172
886.346	54.5469
889.721	69.1914
893.095	101.631
896.47	76.8633
899.845	60.2148
903.22	51.0352
906.595	22.2207
909.97	51.8008
913.344	85.3867
916.719	62.832
920.094	42.8848
923.469	45.1016
926.844	90.2402
930.218	70.5312
933.593	29.9043
936.968	58.1016
940.343	117.35
943.718	155.723
947.092	107.932
950.467	54.502
953.842	63.0742
957.217	101.998
960.592	86.3926
963.966	94.2969
967.341	53.9297
970.716	14.7637
974.091	30.0449
977.466	4.33984
980.841	51.0469
984.215	43.2812
987.59	36.2812
990.965	39.4277
994.34	15.9902
997.715	16.0352
1001.09	7.28125
1004.46	41.9336
1007.84	55.9414
1011.21	37.3145
1014.59	70.75
1017.96	27.2656
1021.34	23.8672
1024.71	47.1328
1028.09	18.3086
1031.46	52.8809
1034.84	25.8828
1038.21	97.5059
1041.59	62.1504
1044.96	66.5391
1048.34	31.6562
1051.71	54.6973
1055.09	58.3672
1058.46	63.6426
1061.84	35.7344
1065.21	31.998
1068.59	38.2246
1071.96	45.1074
1075.34	16.8086
1078.71	32.7383
1082.09	22.543
1085.46	40.3867
1088.84	43.4277
1092.21	58.9805
1095.58	67.5098
1098.96	20.7559
1102.33	23.418
1105.71	38.3301
1109.08	26.459
1112.46	31.8711
1115.83	40.918
1119.21	41.0957
1122.58	57.9609
1125.96	71.9238
1129.33	6.29883
1132.71	12.7539
1136.08	20.9414
1139.46	15.9375
1142.83	31.4668
1146.21	36.2207
1149.58	93.207
1152.96	55.25
1156.33	106.822
1159.71	77.7129
1163.08	92.8594
1166.45	175.555
1169.83	112.022
1173.2	85.3945
1176.58	106.893
1179.95	95.2285
1183.33	143.516
1186.7	103.828
1190.08	140.074
1193.45	116.022
1196.83	77.7285
1200.2	56.8145
1203.58	55.6113
1206.95	99.5918
1210.33	99.7109
1213.7	130.693
1217.08	153.525
1220.45	119.297
1223.83	103.125
1227.2	111.111
1230.58	109.297
1233.95	78.7481
1237.33	17.502
1240.7	17.6758
1244.08	60.0137
1247.45	64.084
1250.83	85.2734
1254.2	80.6953
1257.58	64.5664
1260.95	68.4082
1264.33	57.5234
1267.7	46.7383
1271.08	85.3242
1274.45	28.9648
1277.82	66.7441
1281.2	70.2285
1284.57	65.3555
1287.95	0.484375
1291.32	27.5586
1294.7	33.2852
1298.07	7.76562
1301.45	38.4316
1304.82	22.2676
