Measurement: Raman, 532 nm, unoriented, Raman Data Processed
Mineral: Boromuscovite
Rruff sample: R070107
Ideal chemistry: KAl_2_(Si_3_B)O_10_(OH)_2_
Locality: Little 3 mine, Ramona, California, USA
Source: Jeffrey E. Patterson
Description: White fine-grained micaceous on elbaite
Raman shift (cm-1)	intensity
186.821	0
189.714	33.2812
192.607	9.66992
195.5	57.7578
198.392	171.072
201.285	71.1074
204.178	161.617
207.07	44.2734
209.963	128.975
212.856	163.56
215.749	62.1934
218.641	200.812
221.534	99.5977
224.427	168.481
227.319	189.018
230.212	243.383
233.105	262.93
235.997	171.227
238.89	166.924
241.783	207.553
244.675	162.393
247.568	216.16
250.461	113.394
253.354	232.305
256.246	80.3203
259.139	123.566
262.032	245.324
264.924	166.379
267.817	199.842
270.71	329.525
273.603	135.912
276.495	208.908
279.388	224.027
282.281	293.197
285.173	264.092
288.066	193.072
290.959	238.484
293.851	213.738
296.744	143.367
299.637	73.9336
302.529	145.492
305.422	88.2578
308.315	57.9844
311.208	80.7852
314.1	98.1836
316.993	49.5039
319.886	81.6094
322.778	140.238
325.671	107.41
328.564	41.5078
331.457	86.2969
334.349	80.2539
337.242	104.902
340.135	85.4102
343.027	114.949
345.92	29.832
348.813	107.68
351.705	139.004
354.598	12.582
357.491	67.5781
360.384	43.8086
363.276	96.6641
366.169	36.3594
369.062	64.8203
371.954	81.1094
374.847	1.05469
377.74	94.6445
380.632	126.793
383.525	176.402
386.418	0.605469
389.31	87.8672
392.203	108.758
395.096	239.473
397.989	56.2656
400.881	67.0977
403.774	10.5977
406.667	92.4727
409.559	110.047
412.452	175.113
415.345	94.3867
418.238	144.84
421.13	166.777
424.023	151.75
426.916	203.375
429.808	138.25
432.701	145.742
435.594	101.836
438.486	218.656
441.379	265.16
444.272	81.3906
447.165	152.637
450.057	201.324
452.95	102.047
455.843	191.184
458.735	240.16
461.628	75.875
464.521	165.269
467.413	147.539
470.306	147.668
473.199	35.2461
476.092	218.383
478.984	31.8398
481.877	293.481
484.77	210.742
487.662	257.117
490.555	249.457
493.448	112.094
496.341	228.949
499.233	156.219
502.126	202.715
505.019	57.4375
507.911	212.801
510.804	104.59
513.697	173.848
516.589	235.281
519.482	171.113
522.375	97.8711
525.268	3.5
528.16	213.258
531.053	137.305
533.946	38.3594
536.838	40.5977
539.731	72.3438
542.624	80.2578
545.516	180.93
548.409	182.637
551.302	30.9492
554.194	121.562
557.087	84.0508
559.98	160.043
562.873	132.215
565.765	117.555
568.658	56.1719
571.551	69
574.443	7.66797
577.336	13.5234
580.229	83.9062
583.121	194.445
586.014	93.6914
588.907	10.6836
591.8	172.512
594.692	204.981
597.585	102.961
600.478	0.046875
603.37	144.285
606.263	37.0352
609.156	68.0664
612.048	214.957
614.941	10.8008
617.834	109.078
620.727	52.0039
623.619	252.723
626.512	87.1133
629.405	222.812
632.297	145.453
635.19	243.609
638.083	198.059
640.976	265.609
643.868	198.453
646.761	282.383
649.654	188.016
652.546	295.801
655.439	207.727
658.332	246.019
661.224	306.801
664.117	319.781
667.01	333.535
669.903	278.598
672.795	303.68
675.688	230.023
678.581	280.426
681.473	239.961
684.366	390.211
687.259	180.59
690.151	65.5977
693.044	116.746
695.937	199.691
698.83	179.629
701.722	55.9688
704.615	161.914
707.508	161.684
710.4	163.457
713.293	122.356
716.186	181.742
719.078	177.195
721.971	54.3594
724.864	92.5352
727.757	166.586
730.649	158.633
733.542	16.793
736.435	80.5742
739.327	93.293
742.22	173.629
745.113	292.414
748.005	236.348
750.898	238.629
753.791	307.734
756.684	135.051
759.576	375.082
762.469	106.293
765.362	185.586
768.254	79.8047
771.147	384.215
774.04	161.441
776.933	221.367
779.825	111.309
782.718	158.586
785.611	55.4062
788.503	28.6445
791.396	210.402
794.289	35.5078
797.181	203.41
800.074	97.1211
802.967	72.7891
805.86	105.398
808.752	98.9023
811.645	115.727
814.538	43.1836
817.43	189.652
820.323	43.8438
823.216	68.7656
826.108	26.7695
829.001	181.285
831.894	152.164
834.787	25.375
837.679	149.769
840.572	32.793
843.465	54.1797
846.357	118.512
849.25	251.176
852.143	228.336
855.035	130.066
857.928	41.1953
860.821	5.08594
863.713	115.566
866.606	158.336
869.499	233.758
872.392	72.2656
875.284	81.25
878.177	250.703
881.07	87.5195
883.962	70.0039
886.855	230.34
889.748	16.9219
892.64	170.309
895.533	166.121
898.426	140.641
901.319	178.519
904.211	218.129
907.104	223.664
909.997	271.625
912.889	88.2461
915.782	161.652
918.675	217.609
921.567	36.3477
924.46	59.0039
927.353	128.496
930.246	34.5391
933.138	103.594
936.031	214.676
938.924	45.5508
941.816	41.0547
944.709	182.125
947.602	275.18
950.495	201.938
953.387	123.547
956.28	196.461
959.173	146.422
962.065	128.91
964.958	81.3438
967.851	256.582
970.744	125.25
973.636	201.898
976.529	402.348
979.422	227.16
982.314	86.375
985.207	186.773
988.1	61.2539
990.992	222.766
993.885	181.102
996.778	432.82
999.67	195.227
1002.56	192.781
1005.46	227.609
1008.35	123.719
1011.24	195.336
1014.13	162.055
1017.03	205.836
1019.92	29.9297
1022.81	142.562
1025.7	184.273
1028.6	118.406
1031.49	86.7578
1034.38	257.102
1037.28	61.9062
1040.17	318.531
1043.06	97.6797
1045.95	73.0391
1048.85	291.703
1051.74	16.3828
1054.63	155.094
1057.52	310.141
1060.42	174.969
1063.31	92.4297
1066.2	108.492
1069.1	354.219
1071.99	137.711
1074.88	44.5391
1077.77	283.516
1080.67	0.773438
1083.56	50.9453
1086.45	0.015625
1089.34	249.656
1092.24	173.281
1095.13	225.57
1098.02	165.742
1100.91	196
1103.81	26.3281
1106.7	148.125
1109.59	40.7188
1112.49	104.188
1115.38	221.219
1118.27	137.57
1121.16	81.9453
1124.06	119.258
1126.95	257.883
1129.84	187.734
1132.73	180.609
1135.63	258.812
1138.52	357.898
1141.41	113.328
1144.31	365.789
1147.2	554.539
1150.09	544.055
1152.98	567.57
1155.88	633.523
1158.77	527.797
1161.66	394.773
1164.55	261.07
1167.45	212.125
1170.34	289.25
1173.23	90.4922
1176.12	306.344
1179.02	111.594
1181.91	239.266
1184.8	264.992
1187.7	38
1190.59	148.156
1193.48	3.76562
1196.37	361.852
1199.27	94.5938
1202.16	179.172
1205.05	234.578
1207.94	113.297
1210.84	159.141
1213.73	196.781
1216.62	38.3047
1219.52	271.133
1222.41	35.3359
1225.3	235.812
1228.19	120.602
1231.09	325.445
1233.98	54.8672
1236.87	192.938
1239.77	259.773
1242.66	51.6484
1245.55	423.289
1248.44	183.977
1251.34	349.414
1254.23	252.164
1257.12	256.703
1260.01	299.352
1262.91	297.273
1265.8	271.727
1268.69	344.023
1271.58	405.633
1274.48	258.242
1277.37	451.227
1280.26	324.898
1283.15	432.469
1286.05	400.367
1288.94	427.242
1291.83	172.336
1294.73	213.109
1297.62	343.625
1300.51	56.3281
1303.4	76.1016
1306.3	3.63281
