Measurement: Raman, 780 nm, unoriented, Raman Data Processed
Mineral: Borocookeite
Rruff sample: R080076
Ideal chemistry: LiAl_4_(Si_3_B)O_10_(OH)_8_
Locality: Malkhan Range, Central Transbaikal Region, Russia
Source: Michael Scott
Description: Cream-colored earthy coating on tourmaline crystal
Raman shift (cm-1)	intensity
141.529	0
144.422	0.683594
147.315	7.76953
150.208	26.8643
153.1	26.2031
155.993	34.7285
158.886	43.7227
161.778	32.4424
164.671	30.8467
167.564	18.8184
170.456	22.7334
173.349	1.7041
176.242	13.4033
179.135	37.2217
182.027	66.3154
184.92	97.5703
187.813	77.0117
190.705	61.418
193.598	64.2168
196.491	36.1514
199.383	69.9697
202.276	58.332
205.169	88.7305
208.061	101.304
210.954	94.418
213.847	86.6309
216.74	96.4668
219.632	80.1611
222.525	75.875
225.418	62.7764
228.31	64.9658
231.203	66.4561
234.096	53.4072
236.988	79.457
239.881	69.9062
242.774	57.5527
245.667	61.2861
248.559	43.4404
251.452	37.3848
254.345	48.4951
257.237	45.5
260.13	48.7978
263.023	46.334
265.916	50.0762
268.808	34.5908
271.701	64.7988
274.594	55.5391
277.486	60.4922
280.379	36.4736
283.272	38.2266
286.164	28.9854
289.057	17.4141
291.95	5.31738
294.842	3.30176
297.735	4.96875
300.628	14.25
303.521	4.06152
306.413	1.72754
309.306	1.31934
312.199	3.07519
315.091	0.800781
317.984	31.6338
320.877	9.72559
323.769	17.2861
326.662	6.49219
329.555	30.3652
332.448	28.5957
335.34	33.4531
338.233	33.7949
341.126	19.8447
344.018	42.9121
346.911	27.9775
349.804	57.8652
352.697	46.3721
355.589	30.8486
358.482	22.7012
361.375	2.05664
364.267	29.4893
367.16	18.1309
370.053	47.9697
372.945	41.4092
375.838	8.75586
378.731	7.89551
381.623	6.88086
384.516	3.13672
387.409	4.4043
390.302	9.9502
393.194	8.73926
396.087	16.2812
398.98	30.0225
401.872	21.9355
404.765	22.4189
407.658	16.2471
410.55	12.5537
413.443	26.8545
416.336	31.3408
419.229	21.8408
422.121	45.6494
425.014	52.5117
427.907	46.9053
430.799	60.4385
433.692	68.0518
436.585	60.8633
439.478	57.832
442.37	44.3096
445.263	71.4033
448.156	64.5967
451.048	58.8115
453.941	51.499
456.834	45.831
459.726	74.1055
462.619	66.1035
465.512	73.168
468.404	64.4238
471.297	60.9131
474.19	47.8867
477.083	24.0176
479.975	41.4258
482.868	26.6484
485.761	22.5088
488.653	19.6396
491.546	40.0918
494.439	30.3633
497.332	33.2598
500.224	39.3125
503.117	21.1094
506.01	53.0674
508.902	48.9795
511.795	46.4941
514.688	39.6738
517.58	26.7236
520.473	12.7598
523.366	2.5791
526.259	2.19238
529.151	18.292
532.044	15.6533
534.937	5.70508
537.829	2.50586
540.722	10.4131
543.615	4.72949
546.507	2.53516
549.4	5.36426
552.293	2.25977
555.186	14.7129
558.078	28.1064
560.971	19.4648
563.864	9.12207
566.756	8.78027
569.649	18.9395
572.542	23.8486
575.434	15.1787
578.327	19.7305
581.22	10.7842
584.112	25.2539
587.005	64.8945
589.898	58.6035
592.79	62.3369
595.683	52.2871
598.576	53.6982
601.469	30.082
604.361	39.8516
607.254	34.0977
610.147	32.127
613.039	21.5303
615.932	10.5723
618.825	15.6826
621.717	16.3184
624.61	21.6025
627.503	24.959
630.396	15.7412
633.288	14.2754
636.181	22.1738
639.074	16.0723
641.966	15.3076
644.859	13.6123
647.752	27.4424
650.644	11.6865
653.537	11.9736
656.43	0.65918
659.323	4.62109
662.215	9.34961
665.108	5.60742
668.001	11.3027
670.893	7.72852
673.786	11.1572
676.679	16.0996
679.572	24.1553
682.464	26.2305
685.357	31.9521
688.25	32.001
691.142	14.6797
694.035	13.835
696.928	11.1924
699.82	11.8721
702.713	23.5371
705.606	37.1426
708.499	58.2051
711.391	72.3027
714.284	65.5898
717.177	84.2051
720.069	90.9971
722.962	84.3877
725.855	71.2022
728.747	59.2969
731.64	64.3086
734.533	59.624
737.426	47.9883
740.318	47.2334
743.211	33.4346
746.104	27.5361
748.996	23.3926
751.889	27.0791
754.782	14.6191
757.674	14.8008
760.567	9.31641
763.46	13.7588
766.352	1.21387
769.245	3.79981
772.138	7.22998
775.031	8.44482
777.923	12.1685
780.816	7.77832
783.709	13.7578
786.601	14.8101
789.494	24.9448
792.387	25.0459
795.279	33.2642
798.172	29.9717
801.065	19.666
803.958	23.6699
806.85	54.3545
809.743	45.9385
812.636	39.7915
815.528	15.4214
818.421	31.4233
821.314	30.3867
824.207	27.4697
827.099	31.7681
829.992	33.9238
832.885	44.9062
835.777	45.168
838.67	27.6436
841.563	42.8062
844.455	31.6885
847.348	27.7339
850.241	37.21
853.134	29.9131
856.026	9.42627
858.919	12.6558
861.812	16.1099
864.704	29.3887
867.597	22.625
870.49	21.023
873.382	15.5015
876.275	16.3843
879.168	13.0581
882.061	6.42383
884.953	20.8516
887.846	12.7871
890.739	22.6836
893.631	24.1597
896.524	4.62549
899.417	0.989746
902.309	2.49756
905.202	4.95557
908.095	6.86475
910.987	4.90479
913.88	3.96191
916.773	17.145
919.666	24.2495
922.558	29.0918
925.451	17.3921
928.344	14.2817
931.236	25.6274
934.129	19.0625
937.022	4.38477
939.914	16.9014
942.807	24.2602
945.7	30.0635
948.593	34.4697
951.485	26.6807
954.378	28.5855
957.271	24.1465
960.163	17.5903
963.056	22.7568
965.949	20.5713
968.841	17.6733
971.734	31.2314
974.627	25.3462
977.52	10.6001
980.412	2.479
983.305	5.40918
986.198	4.90381
989.09	6.07031
991.983	7.43555
994.876	13.7573
997.769	11.8071
1000.66	8.88428
1003.55	6.74219
1006.45	9.38623
1009.34	8.4956
1012.23	14.5874
1015.12	17.4106
1018.02	16.979
1020.91	22.2251
1023.8	19.0586
1026.7	19.8281
1029.59	20.9985
1032.48	16.2422
1035.37	22.4531
1038.27	33.7563
1041.16	26.3008
1044.05	19.958
1046.94	6.15918
1049.84	7.81592
1052.73	8.04883
1055.62	16.602
1058.52	20.7969
1061.41	36.542
1064.3	34.9556
1067.19	30.9854
1070.09	23.373
1072.98	24.8623
1075.87	31.2651
1078.76	16.0967
1081.66	19.4673
1084.55	22.354
1087.44	19.1885
1090.34	19.4961
1093.23	17.8042
1096.12	17.6172
1099.01	10.3955
1101.91	2.63672
1104.8	1.13477
1107.69	4.62061
1110.58	1.39356
1113.48	4.61035
1116.37	2.79639
1119.26	5.98731
1122.15	3.15674
1125.05	4.6792
1127.94	0.581543
1130.83	16.3711
1133.72	14.1577
1136.62	16.9014
1139.51	2.47022
1142.4	11.8711
1145.3	14.0591
1148.19	19.231
1151.08	25.1655
1153.97	23.6069
1156.87	23.4263
1159.76	28.648
1162.65	26.9507
1165.55	38.8335
1168.44	35.4136
1171.33	34.3096
1174.22	44.4761
1177.12	38.0869
1180.01	36.2183
1182.9	34.3159
1185.79	32.8648
1188.69	31.5601
1191.58	33.0435
1194.47	28.9653
1197.37	20.6362
1200.26	17.3652
1203.15	38.5225
1206.04	22.896
1208.94	12.1489
1211.83	7.28271
1214.72	22.7129
1217.61	24.2319
1220.51	14.626
1223.4	2.33984
1226.29	13.7773
1229.18	28.5864
1232.08	9.2417
1234.97	9.66895
1237.86	22.3184
1240.76	20.8774
1243.65	19.1977
1246.54	27.0762
1249.43	12.0781
1252.33	9.19482
1255.22	8.56445
1258.11	3.07519
1261	7.38672
1263.9	11.7402
1266.79	19.6289
1269.68	18.626
1272.58	8.98291
1275.47	4.81787
1278.36	8.79834
1281.25	3.53662
1284.15	16.2969
