Measurement: Raman, 780 nm, unoriented, Raman Data Processed
Mineral: Botallackite
Rruff sample: R080012
Ideal chemistry: Cu^2+^_2_Cl(OH)_3_
Locality: Cligga Head, Cornwall, England
Source: William W. Pinch
Description: Aggregate of green bladed to platy crystals
Measured chemistry: (Cu_2.00_Zn_0.02_)Cl_0.96_(OH)_3_
Raman shift (cm-1)	intensity
94.9922	0
98.367	3.73398
101.742	0.145851
105.117	2.1307
108.492	2.63715
111.866	4.81058
115.241	2.06697
118.616	0.064976
121.991	1.96212
125.365	0.948059
128.74	1.44005
132.115	0.649897
135.49	2.04846
138.865	2.29222
142.24	2.99444
145.614	2.99203
148.989	4.40813
152.364	3.56243
155.739	1.90569
159.114	2.34227
162.488	3.31702
165.863	4.70727
169.238	5.62382
172.613	2.52993
175.988	2.46219
179.363	1.31013
182.737	0.834633
186.112	0.916378
189.487	0.189179
192.862	2.18367
196.237	1.38848
199.612	3.10484
202.986	0.992306
206.361	2.18461
209.736	3.29888
213.111	4.81464
216.486	4.32474
219.86	4.6733
223.235	5.84523
226.61	6.43736
229.985	9.18509
233.36	7.88594
236.734	7.79212
240.109	7.78117
243.484	7.75651
246.859	5.79582
250.234	4.31278
253.609	6.06407
256.983	3.68495
260.358	1.79907
263.733	3.67031
267.108	3.32363
270.483	4.19414
273.858	1.87971
277.232	1.44591
280.607	0.839886
283.982	2.10225
287.357	0.481205
290.731	0.060417
294.106	1.39532
297.481	1.88679
300.856	0.325589
304.231	1.53462
307.606	0.231702
310.98	2.03997
314.355	0.779099
317.73	1.10926
321.105	2.82341
324.48	2.81757
327.854	1.19864
331.229	0.514388
334.604	0.883824
337.979	0.544775
341.354	1.3004
344.729	0.289011
348.103	1.54899
351.478	2.23376
354.853	1.65551
358.228	1.06965
361.603	2.84775
364.978	3.63594
368.352	2.41146
371.727	2.85955
375.102	5.13843
378.477	7.94755
381.852	6.66742
385.226	9.15462
388.601	8.31121
391.976	7.7278
395.351	8.28246
398.726	6.01156
402.101	3.48432
405.475	1.02616
408.85	3.67869
412.225	3.29733
415.6	0.722764
418.975	2.59038
422.349	2.54101
425.724	2.4013
429.099	2.69515
432.474	1.49396
435.849	2.45898
439.224	2.66705
442.598	2.47207
445.973	2.02728
449.348	2.19837
452.723	1.13135
456.098	0.12497
459.472	0.497699
462.847	0.131174
466.222	0.83975
469.597	0.143627
472.972	0.380334
476.346	2.52787
479.721	0.841099
483.096	1.73023
486.471	2.0203
489.846	0.666788
493.221	2.30315
496.595	2.29253
499.97	2.41633
503.345	2.04005
506.72	2.57936
510.095	0.785118
513.469	0.252512
516.844	1.12295
520.219	1.54877
523.594	1.4046
526.969	0.072553
530.343	1.02664
533.718	0.550039
537.093	1.74202
540.468	0.624781
543.843	0.684911
547.218	1.6508
550.592	2.43312
553.967	0.258349
557.342	2.17535
560.717	2.01803
564.092	2.38661
567.466	0.716886
570.841	1.78229
574.216	0.801894
577.591	0.187042
580.966	2.47124
584.341	1.31592
587.715	0.154855
591.09	0.341756
594.465	1.18088
597.84	0.208798
601.215	0.050599
604.59	0.384637
607.964	0.486987
611.339	1.21099
614.714	1.71514
618.089	1.22327
621.464	0.554139
624.838	0.471687
628.213	0.862373
631.588	0.734656
634.963	2.61119
638.338	0.759806
641.712	1.05426
645.087	1.38244
648.462	2.57343
651.837	0.000487
655.212	1.8429
658.587	0.61275
661.961	1.97119
665.336	1.37171
668.711	1.53809
672.086	1.47103
675.461	1.84537
678.835	2.81762
682.21	3.75891
685.585	2.14599
688.96	2.86741
692.335	0.817648
695.71	2.41492
699.084	1.77286
702.459	0.41458
705.834	1.26215
709.209	0.115233
712.584	0.960893
715.958	1.16719
719.333	0.846026
722.708	3.00961
726.083	1.17927
729.458	1.71791
732.832	1.72938
736.207	2.11979
739.582	2.50429
742.957	0.724798
746.332	0.758254
749.707	2.98077
753.081	1.75161
756.456	2.57323
759.831	2.5754
763.206	2.02521
766.581	0.880337
769.956	1.54929
773.33	1.81401
776.705	1.75867
780.08	1.08709
783.455	1.24325
786.83	1.59265
790.204	0.322224
793.579	1.38998
796.954	1.0167
800.329	0.893898
803.704	0.872605
807.078	1.0295
810.453	0.230999
813.828	0.193496
817.203	2.49269
820.578	2.38879
823.953	1.04956
827.327	1.80789
830.702	2.79719
834.077	0.857959
837.452	2.21847
840.827	3.0626
844.201	3.44715
847.576	1.59804
850.951	2.07389
854.326	2.24174
857.701	3.39312
861.076	2.8618
864.45	1.8688
867.825	2.05088
871.2	2.24785
874.575	2.40304
877.95	2.65205
881.324	1.24612
884.699	3.86237
888.074	1.51522
891.449	2.36049
894.824	1.50915
898.198	0.443702
901.573	1.01732
904.948	0.939353
908.323	0.297635
911.698	1.26537
915.073	2.13123
918.447	1.50318
921.822	1.59841
925.197	0.65721
928.572	0.116645
931.947	1.92524
935.322	0.324118
938.696	0.878928
942.071	1.91156
945.446	1.56092
948.821	2.02711
952.196	0.505743
955.57	0.039803
958.945	0.668539
962.32	0.633745
965.695	1.38569
969.07	2.14514
972.444	3.1925
975.819	1.89975
979.194	0.577195
982.569	1.79945
985.944	1.05847
989.318	1.12804
992.693	2.67494
996.068	2.12009
999.443	2.23102
1002.82	1.06703
1006.19	1.26572
1009.57	3.41629
1012.94	2.37491
1016.32	1.87723
1019.69	1.55036
1023.07	0.372093
1026.44	1.11099
1029.82	0.254798
1033.19	0.531023
1036.57	0.884503
1039.94	2.23097
1043.32	1.57426
1046.69	1.50011
1050.07	0.136097
1053.44	1.29881
1056.82	1.05127
1060.19	2.43433
1063.57	0.002037
1066.94	2.03518
1070.31	2.3915
1073.69	0.253656
1077.06	1.80184
1080.44	1.07357
1083.81	0.639353
1087.19	3.33136
1090.56	2.18928
1093.94	2.28446
1097.31	1.64879
1100.69	1.21718
1104.06	1.03133
1107.44	0.578524
1110.81	3.60261
1114.19	1.01589
1117.56	1.6023
1120.94	1.29611
1124.31	2.89053
1127.69	1.99506
1131.06	0.797122
1134.44	3.94212
1137.81	1.86461
1141.18	1.21307
1144.56	0.237658
1147.93	0.990192
1151.31	2.02022
1154.68	2.12299
1158.06	2.00669
1161.43	0.685136
1164.81	2.02145
1168.18	2.22999
1171.56	1.98989
1174.93	0.662796
1178.31	2.501
1181.68	2.01085
1185.06	3.47155
1188.43	1.05484
1191.81	2.00555
1195.18	4.24901
1198.56	1.78782
1201.93	1.37712
1205.31	0.470117
1208.68	1.69496
1212.06	0.149329
1215.43	1.84578
1218.81	1.28512
1222.18	0.509602
1225.56	2.62237
1228.93	0.861117
1232.31	2.57302
1235.68	0.842146
1239.06	3.01586
1242.43	3.36943
1245.81	3.17933
1249.18	1.58882
1252.55	2.09453
1255.93	0.8255
1259.3	0.001218
1262.68	2.07682
1266.05	2.86061
1269.43	2.34739
1272.8	1.57403
1276.18	0.150979
1279.55	0.946927
1282.93	1.07702
1286.3	1.20437
