Measurement: Raman, 532 nm, unoriented, Raman Data Processed
Mineral: Bowieite
Rruff sample: R070409
Ideal chemistry: Rh^3+^_2_S^2-^_3_
Locality: Novoseltsi, Burgas Oblast (Bourgas Oblast), Bulgaria
Source: Michael Scott
Description: Polished grey metallic grains embedded in epoxy
Raman shift (cm-1)	intensity
130.377	0
133.752	3.62447
137.127	54.9221
140.502	87.3375
143.876	74.7998
147.251	77.07
150.626	48.3805
154.001	97.251
157.376	55.5667
160.75	55.6847
164.125	66.3041
167.5	71.8784
170.875	107.178
174.25	73.3719
177.625	52.2409
180.999	68.9536
184.374	66.3187
187.749	107.105
191.124	77.3076
194.499	56.8881
197.874	64.6432
201.248	82.4169
204.623	66.4883
207.998	26.0374
211.373	35.8492
214.748	33.727
218.122	39.1423
221.497	26.1805
224.872	19.4789
228.247	5.5332
231.622	13.9112
234.996	9.2596
238.371	1.00282
241.746	1.64368
245.121	2.85146
248.496	12.8503
251.871	12.6103
255.245	8.71976
258.62	11.9521
261.995	22.4627
265.37	28.4167
268.745	16.7235
272.12	14.8173
275.494	20.366
278.869	8.8389
282.244	19.7699
285.619	15.5621
288.994	8.64848
292.368	15.6453
295.743	16.2509
299.118	14.3603
302.493	10.3514
305.868	24.0935
309.243	14.0141
312.617	24.2702
315.992	25.4525
319.367	8.36697
322.742	4.00888
326.117	14.0851
329.491	8.03952
332.866	14.7303
336.241	5.52966
339.616	21.0018
342.991	14.4895
346.365	21.6517
349.74	10.3503
353.115	13.2471
356.49	30.2714
359.865	12.9368
363.24	24.045
366.614	23.7119
369.989	8.60086
373.364	20.426
376.739	4.29158
380.114	12.4232
383.488	9.49478
386.863	11.1698
390.238	13.0704
393.613	0.933853
396.988	9.60049
400.363	4.74261
403.737	6.62842
407.112	3.89317
410.487	18.6224
413.862	3.09662
417.237	0.116241
420.611	5.25391
423.986	0.379166
427.361	8.60429
430.736	3.73914
434.111	19.5828
437.486	26.6688
440.86	2.8584
444.235	18.6734
447.61	22.3378
450.985	8.0365
454.36	15.3021
457.735	1.55916
461.109	3.68257
464.484	17.3803
467.859	15.7655
471.234	17.9771
474.609	15.6053
477.983	25.5534
481.358	13.9807
484.733	25.0447
488.108	21.7136
491.483	23.6682
494.858	12.9176
498.232	23.6591
501.607	9.49307
504.982	16.7899
508.357	6.1824
511.732	13.5329
515.106	5.60912
518.481	11.1116
521.856	12.3086
525.231	4.24353
528.606	16.6508
531.981	17.5042
535.355	5.68419
538.73	19.3196
542.105	15.4225
545.48	17.3971
548.855	12.296
552.229	6.83501
555.604	17.2633
558.979	15.7343
562.354	3.3264
565.729	16.6004
569.104	20.4594
572.478	14.4165
575.853	5.88384
579.228	8.27855
582.603	12.7922
585.978	4.5088
589.352	6.08528
592.727	5.87682
596.102	4.50552
599.477	6.4465
602.852	12.3424
606.227	11.8494
609.601	10.7247
612.976	0.486938
616.351	8.23784
619.726	8.23833
623.101	1.95135
626.476	2.4467
629.85	16.7402
633.225	11.4853
636.6	5.07153
639.975	13.53
643.35	14.5438
646.724	15.0856
650.099	0.544312
653.474	13.1054
656.849	9.31949
660.224	24.1563
663.598	6.95712
666.973	12.4898
670.348	11.6061
673.723	7.16504
677.098	7.44418
680.472	20.2244
683.847	9.07289
687.222	17.772
690.597	17.589
693.972	18.2121
697.347	12.3973
700.721	4.03087
704.096	17.2492
707.471	15.3272
710.846	16.1084
714.221	19.9617
717.596	6.65724
720.97	2.32933
724.345	18.1666
727.72	21.9152
731.095	17.7317
734.47	29.384
737.844	21.8783
741.219	11.3516
744.594	17.3774
747.969	20.473
751.344	18.927
754.719	15.5189
758.093	20.3396
761.468	21.9749
764.843	1.74501
768.218	11.7818
771.593	4.92557
774.967	5.67111
778.342	17.9472
781.717	3.35669
785.092	19.2418
788.467	21.184
791.842	2.62706
795.216	18.9147
798.591	6.27904
801.966	4.1169
805.341	15.4685
808.716	14.5409
812.091	10.831
815.465	15.8768
818.84	1.11079
822.215	19.2211
825.59	13.0283
828.965	19.6064
832.339	3.06722
835.714	2.70312
839.089	6.93053
842.464	0.475525
845.839	7.8448
849.213	0.161987
852.588	17.8952
855.963	1.89966
859.338	26.0295
862.713	10.7687
866.087	14.3044
869.462	14.2139
872.837	27.201
876.212	0.660477
879.587	10.0954
882.962	16.0238
886.337	22.2789
889.711	10.3871
893.086	17.6624
896.461	23.233
899.836	23.283
903.211	25.5133
906.585	26.7057
909.96	8.07182
913.335	16.2185
916.71	12.0054
920.085	3.37825
923.46	7.87466
926.834	6.67046
930.209	18.445
933.584	14.1566
936.959	9.85803
940.334	16.4402
943.708	5.77907
947.083	10.9527
950.458	13.45
953.833	7.89323
957.208	0.034088
960.582	4.85632
963.957	4.07394
967.332	6.8986
970.707	4.94087
974.082	23.0424
977.457	0.488403
980.831	14.6117
984.206	15.7598
987.581	6.73547
990.956	5.00015
994.331	6.84361
997.705	12.0243
1001.08	2.30393
1004.46	12.4488
1007.83	3.77304
1011.21	10.3075
1014.58	5.08833
1017.95	14.594
1021.33	28.7975
1024.7	10.1145
1028.08	23.6651
1031.45	15.1065
1034.83	12.5715
1038.2	22.948
1041.58	31.2712
1044.95	23.7738
1048.33	20.7081
1051.7	17.4937
1055.08	15.9659
1058.45	11.9641
1061.83	9.11002
1065.2	2.86078
1068.58	16.3604
1071.95	14.4361
1075.33	3.20859
1078.7	2.00842
1082.08	14.4966
1085.45	15.454
1088.83	36.2989
1092.2	13.4478
1095.58	15.2172
1098.95	11.5679
1102.33	1.26477
1105.7	13.6435
1109.07	12.9894
1112.45	8.62627
1115.82	4.92972
1119.2	1.51898
1122.57	4.79335
1125.95	10.4122
1129.32	13.8685
1132.7	16.1739
1136.07	14.7433
1139.45	9.70795
1142.82	6.96216
1146.2	12.1905
1149.57	10.2323
1152.95	10.7259
1156.32	6.24214
1159.7	11.8646
1163.07	16.8685
1166.45	0.306213
1169.82	1.92473
1173.2	7.54076
1176.57	16.6853
1179.95	17.4584
1183.32	13.931
1186.69	10.5119
1190.07	0.36673
1193.44	22.9815
1196.82	14.7256
1200.19	18.6763
1203.57	14.9793
1206.94	22.7098
1210.32	20.3907
1213.69	11.1068
1217.07	16.3577
1220.44	32.5866
1223.82	22.0539
1227.19	19.2583
1230.57	11.5657
1233.94	16.0152
1237.32	16.3048
1240.69	6.79773
1244.07	4.51994
1247.44	23.4126
1250.82	22.2467
1254.19	28.8549
1257.57	20.4957
1260.94	19.6182
1264.32	25.5529
1267.69	26.378
1271.07	19.5965
1274.44	18.9487
1277.82	8.06755
1281.19	29.6423
1284.57	18.1602
1287.94	15.1855
1291.32	16.7128
1294.69	15.8246
1298.06	11.0949
