Measurement: Raman, 785 nm, unoriented, Raman Data Processed
Mineral: Bowieite
Rruff sample: R070409
Ideal chemistry: Rh^3+^_2_S^2-^_3_
Locality: Novoseltsi, Burgas Oblast (Bourgas Oblast), Bulgaria
Source: Michael Scott
Description: Polished grey metallic grains embedded in epoxy
Raman shift (cm-1)	intensity
164.41	0
167.303	60.91
170.195	58.1373
173.088	18.2155
175.981	37.943
178.873	3.76709
181.766	13.7566
184.659	43.155
187.552	130.682
190.444	80.9224
193.337	30.661
196.23	81.0987
199.122	0.246521
202.015	28.3378
204.908	14.8201
207.8	31.7607
210.693	13.0092
213.586	1.83404
216.478	14.9467
219.371	7.52658
222.264	17.6122
225.157	11.0705
228.049	2.33389
230.942	13.1229
233.835	10.0033
236.727	23.8511
239.62	19.1981
242.513	34.6264
245.405	37.6675
248.298	24.3085
251.191	43.9471
254.084	57.8173
256.976	49.3672
259.869	54.6084
262.762	55.7881
265.654	51.8741
268.547	44.5474
271.44	54.1063
274.332	47.7996
277.225	42.419
280.118	51.6628
283.011	40.0598
285.903	30.2971
288.796	30.5728
291.689	20.8504
294.581	37.8481
297.474	34.031
300.367	30.0447
303.26	37.8471
306.152	39.5341
309.045	25.2202
311.938	43.3923
314.83	26.3352
317.723	17.5632
320.616	17.4582
323.508	18.9531
326.401	3.73991
329.294	11.0887
332.187	18.9925
335.079	12.0772
337.972	24.9748
340.865	16.6261
343.757	17.8286
346.65	17.6386
349.543	15.8864
352.435	10.2517
355.328	6.5802
358.221	12.1323
361.113	0.146454
364.006	11.4948
366.899	1.35306
369.792	3.18166
372.684	12.2354
375.577	4.20781
378.47	17.7121
381.362	15.7349
384.255	15.7894
387.148	13.6162
390.041	10.1699
392.933	14.4936
395.826	4.64578
398.719	4.01193
401.611	7.57321
404.504	4.2598
407.397	7.67882
410.289	4.18761
413.182	0.087143
416.075	6.96176
418.967	5.27054
421.86	13.7512
424.753	6.0923
427.646	10.3097
430.538	5.52021
433.431	5.86934
436.324	7.73728
439.216	12.8623
442.109	12.9086
445.002	7.57067
447.894	8.09242
450.787	5.47073
453.68	12.4933
456.573	8.51639
459.465	9.56686
462.358	7.64883
465.251	3.94636
468.143	10.641
471.036	13.7724
473.929	7.71976
476.822	0.731216
479.714	10.9224
482.607	3.37133
485.5	3.5197
488.392	11.7398
491.285	3.74017
494.178	12.9302
497.07	14.1494
499.963	4.77929
502.856	9.3876
505.748	3.73229
508.641	6.72744
511.534	1.90997
514.427	7.02736
517.319	14.8394
520.212	14.4427
523.105	6.69752
525.997	7.70814
528.89	11.1184
531.783	1.49301
534.676	4.56909
537.568	6.9532
540.461	0.63015
543.354	6.875
546.246	9.3734
549.139	4.97251
552.032	5.44695
554.924	8.19942
557.817	11.4346
560.71	1.36041
563.602	5.21463
566.495	9.20093
569.388	1.79642
572.281	11.1982
575.173	3.07728
578.066	6.0068
580.959	4.31903
583.851	12.2032
586.744	8.92098
589.637	4.70218
592.529	3.15858
595.422	5.89674
598.315	19.4491
601.208	6.59197
604.1	4.93338
606.993	7.90031
609.886	8.32027
612.778	6.18607
615.671	7.9651
618.564	1.43935
621.457	1.34597
624.349	8.49828
627.242	10.3468
630.135	13.8125
633.027	8.757
635.92	10.9752
638.813	6.75785
641.705	3.76306
644.598	12.9487
647.491	10.0041
650.384	5.84278
653.276	4.38317
656.169	2.33569
659.062	12.2724
661.954	7.72828
664.847	10.5795
667.74	3.3355
670.632	5.3001
673.525	9.16268
676.418	11.2997
679.311	15.3377
682.203	11.5876
685.096	5.36669
687.989	8.53059
690.881	10.4612
693.774	4.53274
696.667	7.92494
699.559	7.00076
702.452	4.1208
705.345	4.46267
708.237	4.50906
711.13	12.1381
714.023	8.13789
716.916	11.2538
719.808	5.38336
722.701	1.15384
725.594	3.99064
728.486	12.7974
731.379	12.533
734.272	4.37199
737.164	3.9127
740.057	18.1172
742.95	6.19132
745.843	10.2422
748.735	12.074
751.628	4.26523
754.521	5.62988
757.413	4.11448
760.306	4.09603
763.199	3.42046
766.091	2.75662
768.984	8.39382
771.877	10.9171
774.77	3.5692
777.662	4.1126
780.555	1.55265
783.448	1.36734
786.34	5.902
789.233	4.15832
792.126	5.23175
795.019	8.79429
797.911	10.6762
800.804	2.28284
803.697	5.52843
806.589	7.42133
809.482	15.3657
812.375	6.55049
815.267	11.6349
818.16	2.41694
821.053	5.01131
823.946	5.41969
826.838	9.52867
829.731	4.59388
832.624	5.72508
835.516	6.36647
838.409	4.22075
841.302	4.81723
844.194	12.5341
847.087	8.49146
849.98	3.11753
852.872	3.01783
855.765	1.63782
858.658	1.19019
861.551	8.66637
864.443	5.40123
867.336	4.6356
870.229	22.1441
873.121	10.2157
876.014	7.82881
878.907	10.2916
881.799	7.27769
884.692	6.41322
887.585	3.61976
890.478	4.29405
893.37	3.39996
896.263	12.4384
899.156	2.31864
902.048	10.1765
904.941	4.21082
907.834	1.58323
910.726	5.4872
913.619	11.3979
916.512	9.37799
919.405	3.2638
922.297	17.0224
925.19	4.04925
928.083	9.78437
930.975	3.99317
933.868	13.3085
936.761	12.7767
939.654	6.60713
942.546	6.19479
945.439	11.6206
948.332	8.80187
951.224	4.03427
954.117	6.32991
957.01	3.85091
959.902	10.6736
962.795	7.31045
965.688	7.78986
968.581	6.05232
971.473	8.58036
974.366	5.56073
977.259	6.41725
980.151	10.9464
983.044	8.99298
985.937	0.939095
988.829	4.23768
991.722	9.3392
994.615	3.75338
997.508	12.5779
1000.4	0.787079
1003.29	8.08104
1006.19	6.09684
1009.08	1.33849
1011.97	11.1383
1014.86	7.87984
1017.76	9.44841
1020.65	11.4454
1023.54	11.4384
1026.43	5.5167
1029.33	1.06236
1032.22	7.17507
1035.11	6.33482
1038.01	3.24425
1040.9	11.5643
1043.79	14.8152
1046.68	9.0448
1049.58	9.64414
1052.47	3.80291
1055.36	0.950485
1058.25	12.0908
1061.15	14.0517
1064.04	6.82171
1066.93	6.73788
1069.83	8.8512
1072.72	7.33066
1075.61	8.45555
1078.5	2.4793
1081.4	10.8514
1084.29	5.40802
1087.18	15.6199
1090.07	2.53693
1092.97	0.471458
1095.86	9.12845
1098.75	7.44044
1101.64	2.37384
1104.54	4.91851
1107.43	12.2767
1110.32	12.1403
1113.21	6.37249
1116.11	7.33478
1119	10.5515
1121.89	9.25229
1124.79	6.43774
1127.68	4.63963
1130.57	7.44733
1133.46	3.97158
1136.36	6.92858
1139.25	7.37985
1142.14	3.60248
1145.04	5.69572
1147.93	3.11408
1150.82	9.14858
1153.71	11.5364
1156.61	2.79634
1159.5	12.7136
1162.39	16.324
1165.28	11.6709
1168.18	6.5633
1171.07	1.02911
1173.96	7.28521
1176.86	2.17316
1179.75	2.33006
1182.64	14.2679
1185.53	5.71869
1188.43	3.53935
1191.32	12.3254
1194.21	11.5761
1197.1	2.4888
1200	4.74326
1202.89	9.90862
1205.78	3.73773
1208.67	7.59048
1211.57	7.39688
1214.46	2.58215
1217.35	8.39916
1220.24	3.89197
1223.14	13.6309
1226.03	13.5357
1228.92	4.42333
1231.82	11.0166
1234.71	0.398857
1237.6	0.607246
