Measurement: Raman, 780 nm, unoriented, Raman Data Processed
Mineral: Brannerite
Rruff sample: R080091
Ideal chemistry: U^4+^Ti^4+^_2_O_6_
Locality: Crocker's Well, South Australia, Australia
Source: Michael Scott
Description: Light brown fragment from metamict sample R060613, after heating at T = 1000 C for 18 hours
Raman shift (cm-1)	intensity
146.038	0
148.931	17.739
151.824	120.961
154.716	272.502
157.609	455.682
160.502	654.417
163.395	851.838
166.287	1024.12
169.18	1136.49
172.073	1150.3
174.965	1047.09
177.858	887.428
180.751	682.659
183.643	478.523
186.536	332.681
189.429	231.872
192.322	164.253
195.214	113.391
198.107	72.9757
201	31.6835
203.892	3.85877
206.785	23.3171
209.678	24.481
212.571	9.69849
215.463	16.9882
218.356	52.1564
221.249	93.4357
224.141	130.533
227.034	167.874
229.927	189.967
232.819	202.709
235.712	202.887
238.605	194.657
241.498	167.636
244.39	143.945
247.283	119.347
250.176	96.1908
253.068	75.7427
255.961	54.0658
258.854	41.4724
261.746	34.6862
264.639	23.3704
267.532	8.29065
270.425	0.37793
273.317	7.74219
276.21	0.07666
279.103	8.17053
281.995	24.8579
284.888	50.905
287.781	79.7919
290.673	116.08
293.566	156.906
296.459	194.672
299.351	235.088
302.244	270.027
305.137	298.028
308.03	317.623
310.922	327.246
313.815	320.791
316.708	305.055
319.6	276.024
322.493	239.744
325.386	195.923
328.279	152.855
331.171	111.547
334.064	72.4425
336.957	45.3218
339.849	26.0054
342.742	10.4847
345.635	0.343872
348.527	1.05005
351.42	5.53711
354.313	3.72913
357.205	2.93115
360.098	6.10205
362.991	18.3346
365.884	36.2057
368.776	58.7154
371.669	89.6084
374.562	134.345
377.454	184.979
380.347	248.355
383.24	325.908
386.132	415.442
389.025	503.022
391.918	594.562
394.81	673.402
397.703	730.602
400.596	755.891
403.489	743.829
406.381	702.578
409.274	632.585
412.167	546.503
415.059	456.727
417.952	383.003
420.845	316.957
423.738	260.12
426.63	210.333
429.523	172.082
432.416	148.684
435.308	129.987
438.201	110.758
441.094	97.7994
443.986	89.1008
446.879	74.2398
449.772	61.0312
452.665	48.7196
455.557	33.1273
458.45	24.575
461.343	12.7725
464.235	0.213013
467.128	3.46985
470.021	6.75708
472.913	7.05261
475.806	4.56262
478.699	5.65857
481.592	21.0267
484.484	41.1125
487.377	62.7046
490.27	84.9827
493.162	104.094
496.055	120.592
498.948	137.091
501.841	155.13
504.733	173.083
507.626	181.758
510.519	189.22
513.411	186.863
516.304	184.996
519.197	170.229
522.089	156.488
524.982	132.424
527.875	111.01
530.768	83.8321
533.66	59.7494
536.553	44.9938
539.446	29.9627
542.338	25.6193
545.231	17.063
548.124	9.49048
551.016	3.70068
553.909	4.45776
556.802	4.45532
559.694	5.0708
562.587	8.82165
565.48	7.1167
568.373	2.47363
571.265	12.0571
574.158	23.0319
577.051	42.1418
579.943	66.9275
582.836	95.6711
585.729	130.204
588.621	175.069
591.514	223.117
594.407	276.503
597.299	332.369
600.192	397.968
603.085	458.924
605.978	523.035
608.87	581.282
611.763	636.813
614.656	684.137
617.548	725.816
620.441	756.132
623.334	778.421
626.226	789.455
629.119	790.432
632.012	779.49
634.905	760.672
637.797	736.113
640.69	700.717
643.583	650.474
646.475	592.253
649.368	525.963
652.261	449.993
655.154	384.113
658.046	322.392
660.939	269.953
663.832	217.754
666.724	175.11
669.617	143.807
672.51	103.593
675.402	76.1184
678.295	55.2327
681.188	39.0234
684.081	19.2971
686.973	8.61804
689.866	3.74963
692.759	4.4779
695.651	9.10095
698.544	7.66394
701.437	7.4303
704.329	6.23352
707.222	1.29224
710.115	14.2656
713.008	25.1694
715.9	45.2891
718.793	64.9786
721.686	88.739
724.578	111.477
727.471	137.413
730.364	167.762
733.256	198.181
736.149	218.479
739.042	238.208
741.934	248.436
744.827	251.504
747.72	245.499
750.613	231.894
753.505	211.426
756.398	185.752
759.291	160.112
762.183	132.199
765.076	109.499
767.969	86.8143
770.861	71.6758
773.754	56.3716
776.647	49.8137
779.54	46.7941
782.432	47.5364
785.325	49.2799
788.218	51.3862
791.11	54.4238
794.003	57.2875
796.896	65.6941
799.788	69.0184
802.681	70.6055
805.574	68.2419
808.467	68.7631
811.359	59.5167
814.252	50.4081
817.145	40.1762
820.037	29.2635
822.93	18.2532
825.823	8.08221
828.716	2.67908
831.608	6.28796
834.501	11.9032
837.394	11.0878
840.286	9.2691
843.179	4.35919
846.072	1.90875
848.964	13.2709
851.857	28.2783
854.75	45.7605
857.643	65.8551
860.535	91.0578
863.428	121.129
866.321	151.136
869.213	183.584
872.106	217.578
874.999	252.009
877.891	282.772
880.784	311.255
883.677	342.825
886.569	359.13
889.462	369.527
892.355	372.791
895.248	365.132
898.14	353.185
901.033	336.123
903.926	317.371
906.818	298.25
909.711	276.996
912.604	252.791
915.496	228.877
918.389	206.836
921.282	188.277
924.175	170.912
927.067	155.099
929.96	142.766
932.853	131.49
935.745	119.219
938.638	113.24
941.531	106.779
944.423	98.6854
947.316	91.8709
950.209	86.5724
953.102	82.0427
955.994	79.3691
958.887	74.926
961.78	70.5572
964.672	68.0463
967.565	62.6867
970.458	56.2521
973.351	53.0099
976.243	46.931
979.136	41.6267
982.029	36.6252
984.921	31.7693
987.814	27.1675
990.707	23.3642
993.599	18.7311
996.492	15.8202
999.385	11.2076
1002.28	7.53229
1005.17	2.758
1008.06	0.326904
1010.96	3.05106
1013.85	5.92786
1016.74	8.28735
1019.63	9.16934
1022.53	10.0196
1025.42	11.1527
1028.31	13.338
1031.2	10.431
1034.1	9.26593
1036.99	4.716
1039.88	1.93268
1042.78	1.94607
1045.67	3.138
1048.56	8.54376
1051.45	12.1354
1054.35	15.4701
1057.24	18.7993
1060.13	19.9243
1063.02	22.316
1065.92	24.6632
1068.81	28.1224
1071.7	36.4194
1074.6	47.9248
1077.49	66.3247
1080.38	93.0281
1083.27	138.305
1086.17	177.857
1089.06	239.525
1091.95	312.779
1094.84	401.294
1097.74	502.913
1100.63	610.339
1103.52	728.213
1106.41	846.394
1109.31	968.669
1112.2	1076.22
1115.09	1169.66
1117.98	1246.85
1120.88	1297.14
1123.77	1328.76
1126.66	1327.86
1129.56	1307.55
1132.45	1259.06
1135.34	1206.96
1138.23	1129.68
1141.13	1050.63
1144.02	962.466
1146.91	870.761
1149.81	783.448
1152.7	696.324
1155.59	614.787
1158.48	534.108
1161.38	461.441
1164.27	392.849
1167.16	333.732
1170.05	285.666
1172.95	243.545
1175.84	209.305
1178.73	180.022
1181.62	151.459
1184.52	130.586
1187.41	110.842
1190.3	92.265
1193.2	78.113
1196.09	66.1875
1198.98	53.5617
1201.87	44.4645
1204.77	32.4109
1207.66	27.4386
1210.55	16.5651
1213.44	11.2045
1216.34	3.10236
1219.23	3.36322
1222.12	10.2581
1225.02	15.5646
1227.91	18.7363
1230.8	17.5991
1233.69	7.67389
1236.59	0.491028
1239.48	9.35968
1242.37	17.8357
1245.26	31.3023
1248.16	46.9315
1251.05	59.2013
1253.94	74.803
1256.84	82.3154
1259.73	71.85
1262.62	62.1259
1265.51	53.3878
1268.41	48.2531
1271.3	39.2906
1274.19	29.634
1277.08	21.3168
1279.98	14.7679
1282.87	5.66125
1285.76	0.019836
