Measurement: Raman, 785 nm, unoriented, Raman Data Processed
Mineral: Brannerite
Rruff sample: R060613
Ideal chemistry: U^4+^Ti^4+^_2_O_6_
Locality: Crocker's Well, South Australia, Australia
Source: Michael Scott
Description: Dark brown massive amorphous, note that a fragment of this sample was heated and is posted at R080091
Measured chemistry: (U^4+^_0.42_U^6+^_0.23_Th_0.13_Ca_0.12_Y_0.05_Pb_0.05_)_Σ=1_(Ti_1.93_Fe^3+^_0.07_)_2_O_6_ ; (gray phase).  (Th_0.81_U^4+^_0.13_Ca_0.02_Y_0.02_Pb_0.02_)_Σ=1_(Ti_1.98_Fe^3+^_0.02_)_Σ=2_(O_5.88_(OH)_0.12_)_Σ=6_ (bright phase = thorutite)
Raman shift (cm-1)	intensity
158.169	10072.6
161.062	10657.7
163.954	11275.1
166.847	11519.4
169.74	11923.5
172.632	12057
175.525	11998.5
178.418	11825.4
181.311	11940.4
184.203	12126.8
187.096	12298.8
189.989	12399.8
192.881	12498.2
195.774	12684.9
198.667	12865.3
201.559	12923.3
204.452	12940.1
207.345	12926.5
210.238	12985.9
213.13	12962.4
216.023	13059.5
218.916	13210
221.808	13187.9
224.701	13297.4
227.594	13243.9
230.486	13217.3
233.379	13411.2
236.272	13499.4
239.165	13704.4
242.057	13777.5
244.95	13793.6
247.843	13696.5
250.735	13722.6
253.628	13728.2
256.521	13863.4
259.413	13812.6
262.306	13767.1
265.199	13755.5
268.091	13690.5
270.984	13532.6
273.877	13423.3
276.77	13417.6
279.662	13523.9
282.555	13533.8
285.448	13615.9
288.34	13502.4
291.233	13317.7
294.126	13310.1
297.018	13146.6
299.911	13181.6
302.804	13259.1
305.697	13393.1
308.589	13374.5
311.482	13324
314.375	13075.2
317.267	13037
320.16	12984.1
323.053	13019.8
325.945	13068.4
328.838	13162.7
331.731	13141.7
334.624	12990.5
337.516	12865.5
340.409	12817.1
343.302	12775
346.194	12784.3
349.087	12780.5
351.98	12813.5
354.872	12823.1
357.765	12621.7
360.658	12535.7
363.551	12366
366.443	12363.8
369.336	12336.6
372.229	12400.2
375.121	12404.7
378.014	12357.9
380.907	12263.1
383.799	12162
386.692	12132.8
389.585	12027.5
392.478	12059.4
395.37	12072.1
398.263	12088
401.156	12108.5
404.048	12111.2
406.941	12089.7
409.834	12043
412.727	12208.5
415.619	12252.6
418.512	12380.8
421.405	12427.7
424.297	12482.1
427.19	12481.9
430.083	12520.2
432.975	12529.4
435.868	12501.9
438.761	12440.3
441.654	12343.2
444.546	12205.4
447.439	12022.3
450.332	11752.6
453.224	11553.4
456.117	11200
459.01	10938.3
461.902	10639.1
464.795	10504.5
467.688	10297.4
470.58	10029.9
473.473	9901.78
476.366	9632.26
479.259	9419.05
482.151	9388.19
485.044	9291.62
487.937	9242.75
490.829	9165.06
493.722	9095.49
496.615	8956.11
499.507	8875.51
502.4	8835.31
505.293	8757.44
508.185	8729.05
511.078	8631.56
513.971	8567.36
516.864	8526.66
519.756	8569.11
522.649	8521.28
525.542	8439.28
528.434	8442.8
531.327	8304.09
534.22	8283.13
537.112	8302.96
540.005	8358.46
542.898	8282.89
545.791	8258.81
548.683	8204.26
551.576	8252.34
554.469	8238.75
557.362	8293.91
560.254	8289.63
563.147	8281.44
566.04	8299.45
568.932	8286.25
571.825	8289.49
574.718	8345.49
577.61	8368.5
580.503	8445.04
583.396	8499.6
586.289	8585.62
589.181	8652.1
592.074	8686.66
594.967	8709.32
597.859	8798.27
600.752	8847.27
603.645	8884.99
606.537	8862.9
609.43	8842.24
612.323	8864.11
615.216	8691.88
618.108	8652.57
621.001	8555.77
623.894	8427.11
626.786	8358.08
629.679	8162.54
632.572	8081.64
635.464	8053.9
638.357	7989.74
641.25	7967.37
644.143	7792.77
647.035	7802.59
649.928	7824.73
652.821	7782.14
655.713	7826.74
658.606	7903.89
661.499	8002.04
664.391	7924.05
667.284	7974.98
670.177	8081.81
673.07	8123
675.962	8260.71
678.855	8181.02
681.748	8203.77
684.64	8281.55
687.533	8351.9
690.426	8337.78
693.318	8403.14
696.211	8522.56
699.104	8601.26
701.997	8617.38
704.889	8642.49
707.782	8561.99
710.675	8683.86
713.567	8728.24
716.46	8780.27
719.353	8801.88
722.245	8748.93
725.138	8834.03
728.031	8808.45
730.924	8772.14
733.816	8719.86
736.709	8674.95
739.602	8646.31
742.494	8658.94
745.387	8515.12
748.28	8528.68
751.172	8416.79
754.065	8295.28
756.958	8188.69
759.851	8072.6
762.743	7982.96
765.636	7908.56
768.529	7777.87
771.421	7652.12
774.314	7527.26
777.207	7375.9
780.099	7276.97
782.992	7218.14
785.885	7171.43
788.778	7096.93
791.67	7011.33
794.563	6902.18
797.456	6765.78
800.348	6759.28
803.241	6666.6
806.134	6636.83
809.026	6506.51
811.919	6389.23
814.812	6250.65
817.705	6058.51
820.597	5875.72
823.49	5625.84
826.383	5385.62
829.275	5071.94
832.168	4783.42
835.061	4446.69
837.953	4127.26
840.846	3821.45
843.739	3591.83
846.631	3308.29
849.524	3117.7
852.417	2937.28
855.31	2805.45
858.202	2613.52
861.095	2498.36
863.988	2367.37
866.88	2301.18
869.773	2159.68
872.666	2057.05
875.558	1966.79
878.451	1916.06
881.344	1799.56
884.237	1750.35
887.129	1650.85
890.022	1592.14
892.915	1506.68
895.807	1413.5
898.7	1322.22
901.593	1247.41
904.485	1225.2
907.378	1154.84
910.271	1068.57
913.164	1015.21
916.056	971.515
918.949	855.097
921.842	851.569
924.734	795.265
927.627	775.583
930.52	720.964
933.412	686.037
936.305	619.021
939.198	609.674
942.091	589.776
944.983	562.279
947.876	524.324
950.769	540.784
953.661	517.19
956.554	489.181
959.447	492.984
962.339	463.811
965.232	387.5
968.125	417.955
971.018	462.571
973.91	398.294
976.803	494.744
979.696	414.272
982.588	429.871
985.481	412.882
988.374	428.567
991.266	429.206
994.159	374.733
997.052	418.63
999.945	407.555
1002.84	429.513
1005.73	454.57
1008.62	472.001
1011.51	466.93
1014.41	454.038
1017.3	438.614
1020.19	492.559
1023.09	481.326
1025.98	509.8
1028.87	498.637
1031.76	573.519
1034.66	562.143
1037.55	652.977
1040.44	640.681
1043.34	746.353
1046.23	709.374
1049.12	784.855
1052.01	822.479
1054.91	899.57
1057.8	985.985
1060.69	1024.49
1063.58	1077.26
1066.48	1156.75
1069.37	1208.02
1072.26	1326.35
1075.15	1402.79
1078.05	1476.41
1080.94	1647.67
1083.83	1812.25
1086.72	1888.52
1089.62	2072.43
1092.51	2206.96
1095.4	2340.5
1098.3	2440.47
1101.19	2580.29
1104.08	2843.77
1106.97	3039.15
1109.87	3274.29
1112.76	3498.22
1115.65	3805.9
1118.55	4025.9
1121.44	4280.27
1124.33	4629.13
1127.22	4897.87
1130.12	5229.44
1133.01	5510.29
1135.9	5812.87
1138.79	6207.44
1141.69	6620.43
1144.58	6947.02
1147.47	7398.98
1150.37	7695.26
1153.26	8072.79
1156.15	8463.04
1159.04	8738.56
1161.94	9136.5
1164.83	9526.22
1167.72	9821.65
1170.61	10095
1173.51	10387.9
1176.4	10655.1
1179.29	10951.6
1182.18	11284.7
1185.08	11464.5
1187.97	11747.3
1190.86	12064.3
1193.76	12204.6
1196.65	12424.5
1199.54	12768.5
1202.43	12825.7
1205.33	12908.3
1208.22	13132.6
1211.11	13203.1
1214	13337.8
1216.9	13515.7
1219.79	13599.1
1222.68	13765.1
1225.58	13789.5
1228.47	13906.7
1231.36	13960.7
1234.25	14033
1237.15	14118.3
1240.04	14361.7
1242.93	14421.5
1245.82	14492.7
1248.72	14632.9
