Measurement: Raman, 532 nm, unoriented, Raman Data RAW
Mineral: Brannerite
Rruff sample: R060613
Ideal chemistry: U^4+^Ti^4+^_2_O_6_
Locality: Crocker's Well, South Australia, Australia
Source: Michael Scott
Description: Dark brown massive amorphous, note that a fragment of this sample was heated and is posted at R080091
Measured chemistry: (U^4+^_0.42_U^6+^_0.23_Th_0.13_Ca_0.12_Y_0.05_Pb_0.05_)_Σ=1_(Ti_1.93_Fe^3+^_0.07_)_2_O_6_ ; (gray phase).  (Th_0.81_U^4+^_0.13_Ca_0.02_Y_0.02_Pb_0.02_)_Σ=1_(Ti_1.98_Fe^3+^_0.02_)_Σ=2_(O_5.88_(OH)_0.12_)_Σ=6_ (bright phase = thorutite)
Raman shift (cm-1)	intensity
131.164	11967.4
134.539	15712.1
137.914	19144.7
141.289	20846.8
144.664	21238.6
148.038	22262.6
151.413	23515.4
154.788	24016.2
158.163	24259.4
161.538	25116.2
164.913	25853.1
168.287	26138.3
171.662	26181.6
175.037	26497.5
178.412	27040.2
181.787	27926.4
185.161	28064.4
188.536	28508
191.911	28753.2
195.286	28744.5
198.661	29003.9
202.036	29074.9
205.41	29279.4
208.785	29623.6
212.16	29807.9
215.535	29592.7
218.91	29805
222.285	30143.3
225.659	30171.8
229.034	30535.9
232.409	30718.2
235.784	30980.6
239.159	31151
242.533	31434.5
245.908	31913
249.283	32106.7
252.658	32065.2
256.033	31664.2
259.408	31699.5
262.782	31661.4
266.157	31722.2
269.532	31435.2
272.907	31151.6
276.282	31085.1
279.656	30792.9
283.031	30807.5
286.406	30683.9
289.781	30525
293.156	30205.8
296.53	29846.4
299.905	29794.2
303.28	29878.2
306.655	30207.8
310.03	30304.1
313.405	30262.6
316.779	30026.1
320.154	29568.1
323.529	29830.6
326.904	30020.4
330.279	30143.6
333.654	29948
337.028	29964.2
340.403	30002
343.778	30017.1
347.153	29766.6
350.528	30025
353.902	30158.5
357.277	30112.9
360.652	29796.7
364.027	29800.2
367.402	29809.2
370.776	29617.6
374.151	29742.4
377.526	29730.3
380.901	29718.7
384.276	29554.1
387.651	29924.4
391.025	29916.1
394.4	29924.3
397.775	29694.9
401.15	29754.5
404.525	29728.1
407.9	29746.1
411.274	29825.3
414.649	30084.5
418.024	30168.3
421.399	30363.1
424.774	30217.1
428.148	29933.9
431.523	29946.8
434.898	30142.9
438.273	29943.8
441.648	29719.9
445.022	29388.9
448.397	29173
451.772	28821.3
455.147	28393.4
458.522	28046
461.897	27691.6
465.271	27376.6
468.646	27167.8
472.021	27101.2
475.396	26960.5
478.771	26535.8
482.146	26427.7
485.52	26432.8
488.895	26320.9
492.27	25880.2
495.645	25752.9
499.02	25791.2
502.394	25672.6
505.769	25658.3
509.144	25802.8
512.519	25637.7
515.894	25589.7
519.268	25759
522.643	26010.3
526.018	25836.7
529.393	25728.4
532.768	25776.9
536.143	25809.9
539.517	25789.9
542.892	25868.2
546.267	26092.1
549.642	26198.3
553.017	26191.8
556.391	26229.5
559.766	26166.7
563.141	26461.2
566.516	26619.3
569.891	26889.6
573.266	27056.6
576.64	27092.9
580.015	27079.7
583.39	27234.4
586.765	27409.7
590.14	27835.3
593.515	27870
596.889	28114.4
600.264	28096.6
603.639	28238.6
607.014	28473.4
610.388	28713.5
613.763	28544
617.138	28281.4
620.513	28045.2
623.888	28180.8
627.263	27986.4
630.638	27675.6
634.012	27222
637.387	27099.6
640.762	26960.3
644.137	26896.7
647.511	27012.7
650.886	27201.1
654.261	27316.1
657.636	27341
661.011	27530.1
664.386	27616.7
667.76	27613
671.135	27972.4
674.51	28057
677.885	28226.1
681.26	28850
684.635	28816.2
688.009	29163.9
691.384	29412.4
694.759	29693.7
698.134	30207.8
701.509	30395.2
704.883	30557.7
708.258	30836.3
711.633	30868.2
715.008	31561.4
718.383	31678.3
721.758	31890.1
725.132	32074.3
728.507	32195.1
731.882	32211.3
735.257	32714.1
738.632	32346.7
742.006	31975.3
745.381	32275.6
748.756	32560.3
752.131	32006.9
755.506	31549.1
758.881	31548.5
762.255	30903.7
765.63	30609.2
769.005	30593.4
772.38	30540
775.755	29986.6
779.13	29559.4
782.504	29148.8
785.879	28990.6
789.254	28671.9
792.629	28410.6
796.003	28093.4
799.378	27614.3
802.753	27172.8
806.128	26654.3
809.503	26382
812.878	25717.6
816.252	24952.3
819.627	24304.4
823.002	23528.9
826.377	22575.3
829.752	21717.2
833.127	20501.4
836.501	19361.5
839.876	18354.8
843.251	17456.1
846.626	16646.7
850.001	16091.6
853.375	15215.8
856.75	14629.6
860.125	14294
863.5	13942.9
866.875	13489.6
870.25	12856.9
873.624	12444.2
876.999	12261.4
880.374	11929.7
883.749	11477.2
887.124	11302
890.498	10891.1
893.873	10781.9
897.248	10453.4
900.623	10239.4
903.998	9672.85
907.373	9083.79
910.747	8806.3
914.122	8504.57
917.497	8284.16
920.872	7875.73
924.247	7920.07
927.622	7800.09
930.996	7428.95
934.371	7106.2
937.746	6783.25
941.121	6778.51
944.495	6532.62
947.87	6362.17
951.245	6159.14
954.62	6012.21
957.995	5841.83
961.37	5726.25
964.744	5673.46
968.119	5321.95
971.494	5385.32
974.869	5162.4
978.244	5258.78
981.619	5278.32
984.993	5061
988.368	4891.72
991.743	4798.07
995.118	4603.77
998.493	4564.22
1001.87	4529.61
1005.24	4378.27
1008.62	4338.96
1011.99	4253.75
1015.37	4072.7
1018.74	4024.92
1022.12	3926.33
1025.49	4010.91
1028.87	3938.71
1032.24	3838.47
1035.62	3779.29
1038.99	3663.38
1042.37	3566.78
1045.74	3504.87
1049.12	3398.07
1052.49	3318.12
1055.87	3479.94
1059.24	3384.72
1062.61	3275.25
1065.99	3108.75
1069.36	3000.32
1072.74	2986.84
1076.11	3019.28
1079.49	2881.95
1082.86	2796.01
1086.24	2969.01
1089.61	2851.85
1092.99	2696.38
1096.36	2858.43
1099.74	2684.79
1103.11	2526.8
1106.49	2626.54
1109.86	2483.65
1113.24	2244.75
1116.61	2375.81
1119.99	2043.28
1123.36	1970.46
1126.74	2011.72
1130.11	2066.14
1133.48	2012.28
1136.86	1824.22
1140.23	1956.82
1143.61	1868.07
1146.98	1768.44
1150.36	1684.52
1153.73	1696.02
1157.11	1524.01
1160.48	1540.37
1163.86	1485.75
1167.23	1369.59
1170.61	1370.28
1173.98	1330.29
1177.36	1324.71
1180.73	1380.27
1184.11	1361.49
1187.48	1245.28
1190.86	1158.6
1194.23	1054.24
1197.61	956.301
1200.98	908.039
1204.36	858.359
1207.73	981.93
1211.11	920.641
1214.48	743.801
1217.86	991.52
1221.23	1159.66
1224.61	603.076
1227.98	675.482
1231.36	624.98
1234.73	693.199
1238.11	637.221
1241.48	606.35
1244.85	467.811
1248.23	497.492
1251.6	427.199
1254.98	304.289
1258.35	348.52
1261.73	302.801
1265.1	351.08
1268.48	134.9
1271.85	196.631
1275.23	432.301
1278.6	161.039
1281.98	9.039
1285.35	102.26
1288.73	196.24
1292.1	-3.27
1295.48	57.971
