Measurement: Raman, 780 nm, unoriented, Raman Data Processed
Mineral: Braunite
Rruff sample: R090057
Ideal chemistry: Mn^2+^Mn^3+^_6_SiO_12_
Locality: N'Chwaning III Mine, N'Chwaning Mines, Kalahari manganese field, Northern Cape Province, South Africa
Source: Marshall Sussman
Description: Blocky lustrous black crystals on fine-grained matrix of the same material. Note that this is braunite II, as defined in de Villiers (1980)
Raman shift (cm-1)	intensity
148.915	0
151.808	0.855619
154.701	0.704763
157.593	0.775335
160.486	1.67111
163.379	0.646185
166.271	0.455515
169.164	0.607754
172.057	0.821287
174.949	0.365118
177.842	0.689342
180.735	0.092699
183.627	0.602068
186.52	0.915516
189.413	0.876143
192.306	0.037987
195.198	1.21472
198.091	0.783224
200.984	0.336676
203.876	0.552977
206.769	1.13881
209.662	1.06861
212.554	0.77828
215.447	0.64539
218.34	1.02545
221.233	1.28098
224.125	1.32758
227.018	1.33642
229.911	2.05458
232.803	2.23162
235.696	2.60041
238.589	2.64585
241.482	3.73926
244.374	3.17132
247.267	3.13495
250.16	1.78889
253.052	1.92839
255.945	0.69881
258.838	0.782191
261.73	0.977525
264.623	0.13461
267.516	0.059587
270.408	0.290565
273.301	0.522767
276.194	0.398464
279.087	0.245349
281.979	0.103497
284.872	0.73105
287.765	0.538742
290.657	0.848296
293.55	0.760369
296.443	0.350871
299.335	1.43491
302.228	1.1547
305.121	0.984556
308.014	1.24256
310.906	0.963542
313.799	0.309173
316.692	1.33094
319.584	0.682721
322.477	1.4322
325.37	0.79348
328.262	1.10917
331.155	1.81425
334.048	1.28369
336.94	0.753478
339.833	1.43642
342.726	1.2471
345.619	1.50453
348.511	1.26019
351.404	0.323295
354.297	1.70708
357.189	1.28208
360.082	1.04378
362.975	1.5363
365.868	0.666401
368.76	1.49651
371.653	0.420783
374.546	0.972417
377.438	1.21546
380.331	0.378029
383.224	0.086761
386.116	0.558534
389.009	0.43823
391.902	0.405817
394.795	0.011301
397.687	0.334578
400.58	0.385595
403.473	0.470063
406.365	0.459835
409.258	0.741227
412.151	0.090092
415.043	0.222922
417.936	0.012242
420.829	0.409563
423.721	0.306842
426.614	0.526354
429.507	0.199727
432.399	0.309305
435.292	0.477345
438.185	0.298443
441.078	0.044938
443.97	0.713204
446.863	1.20461
449.756	1.19026
452.648	0.116317
455.541	0.672164
458.434	0.766276
461.327	0.17116
464.219	0.266708
467.112	0.154742
470.005	0.569924
472.897	0.751622
475.79	0.167996
478.683	0.565743
481.575	0.646936
484.468	0.487305
487.361	0.503133
490.253	0.383145
493.146	0.688136
496.039	0.490647
498.932	0.061467
501.824	0.633649
504.717	1.10257
507.61	0.425084
510.502	0.436263
513.395	0.693601
516.288	0.682265
519.181	0.530155
522.073	1.44336
524.966	0.842159
527.859	0.741252
530.751	0.645825
533.644	0.512935
536.537	0.724343
539.429	0.591798
542.322	0.445164
545.215	0.560388
548.107	0.610671
551	0.030993
553.893	0.358288
556.785	1.18068
559.678	1.16005
562.571	0.235532
565.464	0.645039
568.356	0.169699
571.249	0.670705
574.142	0.503613
577.034	0.494303
579.927	0.517735
582.82	0.06913
585.712	0.416902
588.605	0.165963
591.498	0.284153
594.391	0.711563
597.283	0.796578
600.176	0.949952
603.069	0.517023
605.961	0.956056
608.854	1.24742
611.747	0.418834
614.639	0.68798
617.532	1.02439
620.425	0.88809
623.318	0.755463
626.21	0.095117
629.103	0.813459
631.996	1.15268
634.888	0.633123
637.781	1.18122
640.674	0.003586
643.567	0.28217
646.459	0.32787
649.352	0.415377
652.245	0.334504
655.137	0.543211
658.03	0.1459
660.923	0.525344
663.815	0.206305
666.708	0.003337
669.601	1.05769
672.494	0.59621
675.386	0.691555
678.279	2.03842
681.172	1.23317
684.064	1.48667
686.957	0.919215
689.85	1.75121
692.742	1.5027
695.635	1.15328
698.528	1.18752
701.42	0.658706
704.313	1.19938
707.206	1.05769
710.098	0.432674
712.991	0.274041
715.884	0.588026
718.777	0.764633
721.669	0.040495
724.562	0.101233
727.455	0.646367
730.347	0.697957
733.24	0.097149
736.133	0.535211
739.025	0.637833
741.918	0.290054
744.811	0.643826
747.704	0.547665
750.596	0.535123
753.489	0.609927
756.382	0.850686
759.274	0.545254
762.167	0.89028
765.06	0.593862
767.952	0.669696
770.845	0.275492
773.738	0.639354
776.631	0.77308
779.523	1.22505
782.416	0.704064
785.309	0.188567
788.201	0.636648
791.094	1.03764
793.987	0.794324
796.88	0.086393
799.772	1.02301
802.665	0.516313
805.558	0.997519
808.45	0.9759
811.343	0.691913
814.236	0.817303
817.128	0.876177
820.021	1.20606
822.914	0.856643
825.807	1.42065
828.699	1.36322
831.592	1.51247
834.485	0.810225
837.377	1.10184
840.27	1.56194
843.163	1.36769
846.055	1.92135
848.948	1.39868
851.841	1.85376
854.734	1.2647
857.626	1.42302
860.519	1.34901
863.412	1.70822
866.304	1.33029
869.197	0.720623
872.09	1.1036
874.982	0.889215
877.875	0.705233
880.768	1.22989
883.66	0.922697
886.553	0.470068
889.446	0.920507
892.338	0.597104
895.231	0.190413
898.124	0.473424
901.017	0.430671
903.909	0.3773
906.802	0.500615
909.695	0.277474
912.587	0.662857
915.48	0.502092
918.373	0.324059
921.265	0.423283
924.158	0.448459
927.051	0.878632
929.944	0.834639
932.836	0.955874
935.729	1.35576
938.622	0.621465
941.514	0.377652
944.407	0.317654
947.3	1.1036
950.192	1.09445
953.085	0.588673
955.978	0.983849
958.87	0.61366
961.763	0.682834
964.656	0.651595
967.549	0.423331
970.441	0.154198
973.334	0.950265
976.227	0.370609
979.119	0.879117
982.012	1.36091
984.905	0.456989
987.798	1.22692
990.69	0.926295
993.583	1.07009
996.476	1.09611
999.368	1.18537
1002.26	0.812039
1005.15	0.833587
1008.05	1.09139
1010.94	0.448112
1013.83	0.672757
1016.73	1.09737
1019.62	0.900958
1022.51	0.863675
1025.4	0.587465
1028.3	0.56203
1031.19	0.89425
1034.08	0.889993
1036.97	0.182953
1039.87	1.04917
1042.76	0.448407
1045.65	1.08553
1048.54	0.407725
1051.44	0.61413
1054.33	0.820992
1057.22	0.799281
1060.12	0.488829
1063.01	0.840181
1065.9	0.390186
1068.79	0.161952
1071.69	1.19725
1074.58	0.537296
1077.47	0.464879
1080.36	1.04844
1083.26	0.889176
1086.15	0.812872
1089.04	0.830879
1091.93	0.772826
1094.83	0.812007
1097.72	0.078479
1100.61	0.156702
1103.51	0.500608
1106.4	0.576105
1109.29	0.083457
1112.18	1.37103
1115.08	0.580655
1117.97	0.677443
1120.86	0.437502
1123.75	0.105386
1126.65	0.269541
1129.54	0.569562
1132.43	0.527194
1135.33	0.889235
1138.22	1.03806
1141.11	0.776937
1144	0.847989
1146.9	0.350503
1149.79	0.353221
1152.68	1.11536
1155.57	0.389141
1158.47	1.22714
1161.36	1.09979
1164.25	0.337279
1167.14	0.305876
1170.04	0.647728
1172.93	0.501232
1175.82	0.48944
1178.72	0.76555
1181.61	0.417519
1184.5	1.0328
1187.39	0.116375
1190.29	0.579069
1193.18	0.033535
1196.07	0.926523
1198.96	0.546703
1201.86	0.754637
1204.75	0.114373
1207.64	0.864463
1210.54	0.713224
1213.43	0.694316
1216.32	0.058877
1219.21	0.634526
1222.11	0.292111
1225	1.70408
1227.89	0.739126
1230.78	1.52731
1233.68	0.246307
1236.57	0.473352
1239.46	0.350134
1242.36	0.629536
1245.25	0.659966
1248.14	0.242043
1251.03	0.161582
1253.93	0.637859
1256.82	0.332783
1259.71	0.551757
1262.6	0.353609
1265.5	0.951928
1268.39	0.549063
1271.28	0.341699
1274.17	0.336845
1277.07	0.802322
1279.96	0.139143
1282.85	0.01002
1285.74	0.105976
