Measurement: Raman, 785 nm, unoriented, Raman Data Processed
Mineral: Brezinaite
Rruff sample: R070042
Ideal chemistry: Cr^2+^Cr^3+^_2_S^2-^_4_
Locality: Tucson meteorite, Pima County, Arizona, USA
Source: Michael Scott
Description: Bright gray polished fragment embedded in epoxy
Raman shift (cm-1)	intensity
166.147	0
169.04	40.9785
171.932	37.7325
174.825	120.144
177.718	191.176
180.61	104.69
183.503	13.402
186.396	23.4972
189.288	89.7426
192.181	55.1022
195.074	94.0318
197.967	123.633
200.859	84.2724
203.752	99.4564
206.645	90.1539
209.537	60.2964
212.43	26.9166
215.323	39.3279
218.215	19.3207
221.108	19.7875
224.001	20.6411
226.894	3.63565
229.786	11.4836
232.679	5.9603
235.572	9.87219
238.464	43.5864
241.357	49.7245
244.25	39.5669
247.143	29.7142
250.035	34.0511
252.928	56.8406
255.821	93.8503
258.713	62.1811
261.606	57.0595
264.499	53.0289
267.391	40.8695
270.284	69.5137
273.177	73.4685
276.07	71.7185
278.962	52.9742
281.855	42.4324
284.748	53.3148
287.64	42.2063
290.533	35.7441
293.426	24.4095
296.318	17.8932
299.211	28.6383
302.104	29.0385
304.997	27.1545
307.889	54.4907
310.782	26.4985
313.675	38.2256
316.567	26.589
319.46	36.9231
322.353	31.3209
325.245	23.8141
328.138	9.90689
331.031	30.1104
333.923	7.87555
336.816	8.61111
339.709	13.8649
342.602	11.289
345.494	10.7134
348.387	25.316
351.28	15.0568
354.172	11.4932
357.065	19.9923
359.958	13.6692
362.851	0.79834
365.743	6.1814
368.636	13.7169
371.529	8.85275
374.421	4.99579
377.314	12.8512
380.207	18.4518
383.099	23.5205
385.992	13.0844
388.885	21.4576
391.777	14.2121
394.67	17.7198
397.563	8.4635
400.456	3.30145
403.348	13.3929
406.241	3.60156
409.134	2.35306
412.026	4.64468
414.919	6.23746
417.812	17.3603
420.704	9.72546
423.597	16.6693
426.49	15.6913
429.383	19.6498
432.275	15.8951
435.168	9.98166
438.061	2.68774
440.953	9.802
443.846	14.0018
446.739	2.38016
449.632	15.5212
452.524	9.08063
455.417	14.2091
458.31	11.3002
461.202	7.67786
464.095	11.7727
466.988	22.3664
469.88	28.4023
472.773	8.82913
475.666	30.1026
478.558	7.87882
481.451	7.66684
484.344	5.21097
487.237	14.0099
490.129	22.637
493.022	28.813
495.915	17.0017
498.807	3.3873
501.7	9.33997
504.593	14.6449
507.486	12.5916
510.378	19.7716
513.271	21.1712
516.164	8.81726
519.056	9.46146
521.949	13.3708
524.842	23.8307
527.734	24.1004
530.627	4.51337
533.52	7.16522
536.413	13.6613
539.305	0.161011
542.198	15.3028
545.091	18.3378
547.983	7.9299
550.876	10.9972
553.769	6.40411
556.661	6.84351
559.554	2.95813
562.447	9.18607
565.34	16.6088
568.232	7.46521
571.125	16.4762
574.018	9.69531
576.91	14.7657
579.803	11.1476
582.696	19.3911
585.588	17.698
588.481	8.83716
591.374	15.2097
594.266	7.76025
597.159	24.897
600.052	4.93845
602.945	11.6821
605.837	5.92764
608.73	2.38263
611.623	27.4321
614.515	3.12189
617.408	1.00116
620.301	2.12064
623.193	21.0804
626.086	2.15384
628.979	2.46555
631.872	18.7597
634.764	9.10046
637.657	5.24551
640.55	10.7411
643.442	5.82928
646.335	8.3595
649.228	12.4972
652.12	10.5933
655.013	11.0526
657.906	4.8591
660.799	25.5032
663.691	6.78656
666.584	10.2861
669.477	5.90665
672.369	5.36646
675.262	1.98663
678.155	9.23306
681.048	13.9508
683.94	0.640259
686.833	18.0765
689.726	12.232
692.618	16.4212
695.511	1.7276
698.404	18.7568
701.296	26.3552
704.189	9.8074
707.082	14.5533
709.975	7.59122
712.867	15.1997
715.76	7.56299
718.653	1.56482
721.545	20.3122
724.438	21.2567
727.331	14.2624
730.223	12.0131
733.116	19.7759
736.009	16.6662
738.902	13.56
741.794	11.4298
744.687	17.3608
747.58	0.092255
750.472	8.60074
753.365	9.74628
756.258	3.88016
759.15	8.14166
762.043	1.6824
764.936	1.30701
767.828	5.67429
770.721	6.27133
773.614	3.21219
776.507	7.11554
779.399	12.8778
782.292	0.70578
785.185	4.09091
788.077	11.7078
790.97	3.72543
793.863	11.2765
796.755	0.49469
799.648	12.8529
802.541	7.87817
805.434	8.37375
808.326	6.29742
811.219	16.1685
814.112	1.39749
817.004	9.86194
819.897	16.2987
822.79	6.74594
825.683	21.2426
828.575	7.64232
831.468	23.0489
834.361	1.79385
837.253	5.78235
840.146	10.4037
843.039	7.82791
845.931	15.3963
848.824	15.7268
851.717	4.0016
854.61	3.9476
857.502	8.00858
860.395	15.5193
863.288	10.1214
866.18	8.87883
869.073	6.70402
871.966	16.7426
874.858	17.6966
877.751	22.392
880.644	11.3322
883.537	4.37007
886.429	10.2304
889.322	3.50693
892.215	18.2553
895.107	25.474
898	8.08087
900.893	13.507
903.785	15.8512
906.678	10.1627
909.571	0.385254
912.463	17.2984
915.356	11.679
918.249	4.67883
921.142	9.77957
924.034	13.1415
926.927	13.8861
929.82	3.59422
932.712	3.14757
935.605	14.6463
938.498	18.1691
941.39	3.20912
944.283	9.21277
947.176	10.8341
950.069	9.82225
952.961	10.5909
955.854	19.8397
958.747	11.7177
961.639	18.8016
964.532	9.22643
967.425	5.12555
970.317	8.92718
973.21	2.13016
976.103	18.6772
978.996	7.02359
981.888	14.6301
984.781	6.17731
987.674	1.59329
990.566	10.675
993.459	11.2298
996.352	15.3934
999.245	1.28531
1002.14	9.96442
1005.03	11.4661
1007.92	8.95782
1010.82	22.3552
1013.71	20.0999
1016.6	9.1712
1019.49	13.729
1022.39	14.342
1025.28	14.2723
1028.17	13.8229
1031.06	11.568
1033.96	20.3738
1036.85	0.38205
1039.74	8.43585
1042.63	20.6958
1045.53	22.4805
1048.42	13.9839
1051.31	9.3219
1054.21	19.943
1057.1	4.27133
1059.99	20.6583
1062.88	11.414
1065.78	6.01797
1068.67	3.24011
1071.56	0.25238
1074.45	7.33167
1077.35	31.9745
1080.24	27.1782
1083.13	17.3552
1086.03	16.1282
1088.92	15.4011
1091.81	17.9482
1094.7	7.94891
1097.6	24.1175
1100.49	11.1914
1103.38	3.23572
1106.27	9.56802
1109.17	20.0589
1112.06	25.5797
1114.95	6.97879
1117.85	22.701
1120.74	21.868
1123.63	25.3068
1126.52	26.3625
1129.42	10.7368
1132.31	11.906
1135.2	14.7244
1138.09	3.25467
1140.99	0.590942
1143.88	4.11926
1146.77	10.429
1149.66	27.0494
1152.56	19.3351
1155.45	23.781
1158.34	4.58286
1161.24	12.3257
1164.13	8.77765
1167.02	12.2685
1169.91	11.6842
1172.81	11.3525
1175.7	20.0779
1178.59	27.8057
1181.48	11.7053
1184.38	27.8627
1187.27	43.4793
1190.16	14.9898
1193.06	8.13333
1195.95	18.4677
1198.84	10.4252
1201.73	14.1922
1204.63	24.559
1207.52	17.3281
1210.41	7.25833
1213.3	7.05789
1216.2	21.849
1219.09	11.9451
1221.98	18.9341
1224.88	1.33115
1227.77	1.06302
1230.66	8.70587
1233.55	5.74652
