Measurement: Raman, 532 nm, unoriented, Raman Data Processed
Mineral: Brezinaite
Rruff sample: R070042
Ideal chemistry: Cr^2+^Cr^3+^_2_S^2-^_4_
Locality: Tucson meteorite, Pima County, Arizona, USA
Source: Michael Scott
Description: Bright gray polished fragment embedded in epoxy
Raman shift (cm-1)	intensity
148.736	0
151.629	7.80438
154.521	65.8559
157.414	12.1678
160.307	8.16425
163.199	45.5241
166.092	5.3548
168.985	26.5883
171.877	68.1804
174.77	15.5309
177.663	39.0706
180.555	51.9587
183.448	50.5566
186.341	61.6981
189.234	75.212
192.126	61.9726
195.019	41.8603
197.912	68.5035
200.804	78.8869
203.697	51.5892
206.59	77.9619
209.482	38.6076
212.375	50.6158
215.268	11.6024
218.161	22.9886
221.053	13.256
223.946	24.8559
226.839	16.8893
229.731	1.25311
232.624	11.4767
235.517	22.8737
238.41	9.03388
241.302	4.0007
244.195	6.06165
247.088	18.3131
249.98	20.1036
252.873	30.6417
255.766	23.6902
258.658	40.4904
261.551	25.1015
264.444	45.1114
267.337	27.3856
270.229	44.6996
273.122	37.5898
276.015	8.28754
278.907	31.9941
281.8	20.0185
284.693	10.5723
287.585	12.243
290.478	32.0704
293.371	24.0753
296.263	28.6412
299.156	27.6613
302.049	24.2065
304.942	24.0216
307.834	44.6573
310.727	32.1441
313.62	29.3071
316.512	16.0922
319.405	23.8247
322.298	35.6498
325.19	33.3379
328.083	34.7657
330.976	24.3157
333.868	50.5969
336.761	27.0474
339.654	36.1739
342.547	36.0054
345.439	18.3574
348.332	34.1634
351.225	37.7551
354.117	28.4213
357.01	24.0332
359.903	44.9952
362.796	3.0354
365.688	12.7131
368.581	26.6855
371.474	4.38431
374.366	6.18985
377.259	14.8454
380.152	1.01517
383.044	13.1567
385.937	4.67206
388.83	15.3423
391.722	13.2535
394.615	11.786
397.508	11.1366
400.401	25.8151
403.293	14.4406
406.186	23.909
409.079	9.65536
411.971	31.7314
414.864	20.5502
417.757	4.15012
420.649	8.59531
423.542	19.3491
426.435	23.2183
429.327	14.3243
432.22	5.55484
435.113	29.4524
438.006	36.0532
440.898	19.4882
443.791	17.0942
446.684	37.8163
449.576	2.61743
452.469	20.2416
455.362	40.3843
458.255	34.6739
461.147	4.74136
464.04	2.90213
466.933	21.1594
469.825	31.9866
472.718	46.7579
475.611	9.0166
478.503	18.925
481.396	28.2022
484.289	31.91
487.182	15.5527
490.074	30.9436
492.967	4.18851
495.86	1.11365
498.752	40.4747
501.645	31.4403
504.538	18.9859
507.43	26.7441
510.323	3.17624
513.216	19.3663
516.109	13.5911
519.001	29.2188
521.894	17.0113
524.787	9.94113
527.679	32.7475
530.572	5.07724
533.465	23.9803
536.357	11.7698
539.25	20.6209
542.143	9.3703
545.035	22.0252
547.928	34.6608
550.821	30.1645
553.713	29.2692
556.606	24.3672
559.499	19.9971
562.392	31.1925
565.284	15.2207
568.177	25.0619
571.07	18.2272
573.962	30.028
576.855	2.25378
579.748	13.7689
582.64	11.5009
585.533	10.741
588.426	0.042328
591.319	9.02368
594.211	34.4451
597.104	2.11978
599.997	0.263763
602.889	21.068
605.782	20.3396
608.675	27.7517
611.567	7.86478
614.46	11.1529
617.353	7.77112
620.245	47.894
623.138	13.7206
626.031	20.3742
628.924	26.6188
631.816	18.1427
634.709	37.0934
637.602	19.5321
640.494	44.2574
643.387	31.0429
646.28	25.6972
649.173	4.51032
652.065	31.2711
654.958	20.098
657.851	17.9851
660.743	15.8412
663.636	29.6298
666.529	51.7317
669.421	30.6362
672.314	17.3217
675.207	32.1183
678.1	13.0539
680.992	30.974
683.885	10.9286
686.778	26.2353
689.67	17.8528
692.563	36.9506
695.456	11.8444
698.348	5.37006
701.241	43.3353
704.134	24.7254
707.027	38.8969
709.919	42.7676
712.812	32.0436
715.705	24.3546
718.597	35.2639
721.49	15.4808
724.383	18.7636
727.275	29.6881
730.168	41.4068
733.061	29.4143
735.953	27.3708
738.846	21.3406
741.739	35.1851
744.631	28.7265
747.524	31.5645
750.417	28.3961
753.31	26.7616
756.202	23.7326
759.095	36.4254
761.988	25.6613
764.88	30.3825
767.773	9.23035
770.666	57.5725
773.558	17.4867
776.451	8.52286
779.344	35.8521
782.237	22.6799
785.129	16.9824
788.022	2.53494
790.915	4.75711
793.807	20.6604
796.7	19.6602
799.593	25.7025
802.486	22.0868
805.378	4.70914
808.271	38.0943
811.164	12.9899
814.056	17.2078
816.949	24.0413
819.842	8.77161
822.734	11.1924
825.627	8.04941
828.52	27.3098
831.413	30.4689
834.305	13.1126
837.198	11.5511
840.091	21.5154
842.983	40.2204
845.876	40.8247
848.769	12.2478
851.661	15.006
854.554	42.6005
857.447	17.5696
860.34	19.6235
863.232	49.2253
866.125	53.8399
869.018	40.7287
871.91	29.2216
874.803	16.6608
877.696	24.2935
880.588	22.3109
883.481	0.057434
886.374	16.6126
889.266	49.2438
892.159	25.4431
895.052	12.1938
897.944	39.402
900.837	24.3292
903.73	23.2737
906.623	16.3141
909.515	55.7809
912.408	43.6262
915.301	8.439
918.193	49.9308
921.086	44.5082
923.979	11.917
926.871	5.42212
929.764	43.2008
932.657	37.6403
935.55	40.5832
938.442	33.4645
941.335	12.657
944.228	15.0229
947.12	10.6179
950.013	28.5687
952.906	18.1788
955.798	61.2918
958.691	5.52054
961.584	50.2042
964.477	21.3423
967.369	34.8141
970.262	18.8107
973.155	20.5461
976.047	26.3169
978.94	9.66629
981.833	11.9071
984.726	35.3604
987.618	57.6338
990.511	17.9116
993.404	18.5687
996.296	27.9373
999.189	26.2045
1002.08	38.224
1004.97	40.7354
1007.87	26.1721
1010.76	36.7433
1013.65	44.2345
1016.54	16.5779
1019.44	63.5753
1022.33	59.1692
1025.22	26.8332
1028.12	26.5766
1031.01	40.8234
1033.9	33.7736
1036.79	27.8801
1039.69	77.9652
1042.58	56.8553
1045.47	47.3963
1048.37	22.7774
1051.26	60.6145
1054.15	39.3366
1057.04	10.8249
1059.94	47.7934
1062.83	29.1297
1065.72	40.7041
1068.61	41.233
1071.51	19.1957
1074.4	33.2831
1077.29	21.0748
1080.18	23.6038
1083.08	32.923
1085.97	26.1985
1088.86	24.393
1091.76	18.6469
1094.65	6.5997
1097.54	42.61
1100.43	52.2209
1103.33	12.8092
1106.22	18.582
1109.11	37.5959
1112	90.5609
1114.9	33.8307
1117.79	50.2895
1120.68	50.725
1123.58	43.603
1126.47	28.7972
1129.36	26.6909
1132.25	34.8765
1135.15	1.92194
1138.04	16.0008
1140.93	30.167
1143.82	46.5496
1146.72	33.5988
1149.61	3.82095
1152.5	28.176
1155.39	7.30435
1158.29	43.8035
1161.18	48.7863
1164.07	6.45056
1166.96	34.4098
1169.86	29.9689
1172.75	7.29611
1175.64	32.7982
1178.54	37.7569
1181.43	18.7087
1184.32	12.1381
1187.21	83.5114
1190.11	52.9794
1193	44.0055
1195.89	75.8352
1198.79	36.0491
1201.68	43.6407
1204.57	47.4004
1207.46	36.1455
1210.36	35.8283
1213.25	51.454
1216.14	1.52872
1219.03	32.5312
1221.93	14.3599
1224.82	50.7194
1227.71	42.1108
1230.61	41.2688
1233.5	41.8041
1236.39	22.7851
1239.28	32.6182
1242.18	12.1976
1245.07	29.1532
1247.96	50.5315
1250.85	58.8682
1253.75	17.8443
1256.64	23.2293
1259.53	35.6417
1262.42	25.3517
1265.32	11.3518
1268.21	24.3559
1271.1	1.14929
1273.99	55.7194
1276.89	28.3227
1279.78	20.0295
1282.67	46.9623
1285.57	0.96994
1288.46	13.8446
1291.35	10.8359
1294.24	15.5011
1297.14	4.97443
