Measurement: Raman, 780 nm, unoriented, Raman Data Processed
Mineral: Brochantite
Rruff sample: R060133
Ideal chemistry: Cu^2+^_4_S^6+^O_4_(OH)_6_
Locality: Shattuck mine, Bisbee, Cochise County, Arizona, USA
Source: University of Arizona Mineral Museum
Description: Deep green thick prismatic crystals
Measured chemistry: Cu_4.00_S_1.00_O_4_(OH)_6_
Raman shift (cm-1)	intensity
149.879	0
152.772	0.584122
155.665	0.268325
158.557	1.38556
161.45	1.0477
164.343	1.59653
167.236	1.63617
170.128	1.2337
173.021	0.977777
175.914	0.418523
178.806	0.088093
181.699	0.060483
184.592	0.010183
187.484	0.162038
190.377	0.096594
193.27	0.056036
196.162	0.005672
199.055	0.065947
201.948	0.199996
204.841	0.042745
207.733	0.20463
210.626	0.108795
213.519	0.721189
216.411	1.25693
219.304	0.578259
222.197	1.01637
225.089	1.29133
227.982	1.14449
230.875	1.89818
233.768	2.24432
236.66	2.06932
239.553	3.52806
242.446	3.81248
245.338	4.39967
248.231	3.14637
251.124	2.02014
254.017	0.686477
256.909	0.377288
259.802	0.038025
262.695	0.001627
265.587	0.622297
268.48	0.017424
271.373	0.277691
274.265	0.232223
277.158	0.016042
280.051	0.494067
282.943	0.021752
285.836	0.444944
288.729	0.111767
291.622	0.143788
294.514	0.008025
297.407	0.094258
300.3	0.628081
303.192	0.109714
306.085	1.34465
308.978	0.934601
311.87	1.13777
314.763	0.717271
317.656	0.465763
320.548	0.381486
323.441	0.002805
326.334	0.150466
329.227	0.010697
332.119	0.061481
335.012	0.022421
337.905	0.201907
340.797	0.012711
343.69	0.589829
346.583	0.00353
349.476	0.024889
352.368	0.146154
355.261	0.669474
358.154	0.523518
361.046	0.188818
363.939	0.292259
366.832	0.679455
369.724	0.502574
372.617	1.09416
375.51	0.582044
378.402	1.12132
381.295	1.19554
384.188	0.96629
387.081	0.917541
389.973	0.399592
392.866	0.140734
395.759	0.749946
398.651	0.117479
401.544	0.140425
404.437	0.026487
407.329	0.785643
410.222	0.020195
413.115	0.496261
416.008	0.008809
418.9	0.542949
421.793	0.254901
424.686	0.024682
427.578	0.277259
430.471	0.091762
433.364	0.054037
436.257	0.383557
439.149	0.243534
442.042	0.341291
444.935	0.013458
447.827	0.180279
450.72	0.020543
453.613	0.01452
456.505	0.007717
459.398	0.010376
462.291	0.396842
465.183	0.317262
468.076	0.629507
470.969	0.874716
473.861	0.744819
476.754	1.37243
479.647	1.48783
482.54	1.11446
485.432	1.09037
488.325	0.920363
491.218	0.572426
494.11	0.651569
497.003	0.720017
499.896	0.586203
502.788	1.13151
505.681	0.444676
508.574	0.738906
511.467	0.55507
514.359	0.023683
517.252	0.386117
520.145	0.457391
523.037	0.146902
525.93	0.53818
528.823	0.007988
531.716	0.011456
534.608	0.068843
537.501	0.001796
540.394	0.050237
543.286	0.185901
546.179	0.161678
549.072	0.456918
551.964	0.526154
554.857	0.237161
557.75	0.26441
560.643	0.008521
563.535	0.535163
566.428	0.005472
569.321	0.489256
572.213	0.012528
575.106	0.097092
577.999	0.161673
580.891	0.618344
583.784	0.288824
586.677	0.003528
589.569	1.00419
592.462	0.781509
595.355	0.691904
598.248	0.580507
601.14	0.946051
604.033	0.809591
606.926	1.85608
609.818	1.15379
612.711	0.932524
615.604	0.907318
618.496	0.401767
621.389	0.841557
624.282	0.00545
627.174	0.39386
630.067	0.021928
632.96	0.019172
635.853	0.794147
638.745	0.226336
641.638	0.183868
644.531	0.364962
647.423	0.606317
650.316	0.297882
653.209	0.20661
656.101	0.835218
658.994	0.467984
661.887	6.2e-05
664.78	0.521821
667.672	0.321716
670.565	0.179722
673.458	0.172681
676.35	0.179658
679.243	0.466421
682.136	0.423021
685.029	0.05727
687.921	0.156018
690.814	0.087484
693.707	0.215177
696.599	0.466721
699.492	0.006978
702.385	0.021161
705.277	0.113623
708.17	0.240272
711.063	0.425605
713.955	0.424114
716.848	0.009547
719.741	0.433765
722.634	0.401986
725.526	0.139689
728.419	0.015213
731.312	0.011115
734.204	0.570584
737.097	0.177544
739.99	0.900673
742.882	0.037268
745.775	0.21137
748.668	0.394414
751.561	0.003078
754.453	0.290285
757.346	0.130759
760.239	0.299214
763.131	0.49791
766.024	0.009931
768.917	0.577334
771.809	0.035751
774.702	0.020128
777.595	0.45791
780.487	0.233965
783.38	0.012991
786.273	0.006412
789.166	0.185186
792.058	0.853788
794.951	0.013909
797.844	0.039456
800.736	0.159059
803.629	0.572018
806.522	0.211996
809.414	0.102107
812.307	0.526782
815.2	0.45162
818.093	0.357953
820.985	0.537847
823.878	0.52694
826.771	0.218445
829.663	0.245099
832.556	0.481442
835.449	0.356046
838.341	0.493822
841.234	1.08337
844.127	0.55602
847.02	1.05133
849.912	0.120484
852.805	0.864202
855.698	0.775219
858.59	0.468598
861.483	0.716036
864.376	0.515534
867.269	0.395216
870.161	0.764187
873.054	0.901065
875.947	1.08282
878.839	0.421548
881.732	0.172193
884.625	0.55632
887.517	0.579228
890.41	0.007437
893.303	0.040225
896.195	0.128115
899.088	0.577268
901.981	0.022679
904.874	0.027184
907.766	0.415217
910.659	0.382352
913.552	0.000828
916.444	0.325629
919.337	0.019172
922.23	0.154045
925.122	0.269065
928.015	0.184234
930.908	0.07382
933.801	0.016055
936.693	0.218809
939.586	0.42573
942.479	0.067254
945.371	0.609532
948.264	0.725537
951.157	0.177979
954.049	1.02311
956.942	1.36203
959.835	1.54971
962.727	2.83719
965.62	4.31514
968.513	4.63046
971.406	5.03148
974.298	4.2212
977.191	3.10302
980.084	3.14343
982.976	2.3555
985.869	1.23364
988.762	0.895203
991.654	0.431591
994.547	0.73933
997.44	0.00858
1000.33	0.005111
1003.23	0.001586
1006.12	0.21084
1009.01	0.014035
1011.9	0.337131
1014.8	0.002768
1017.69	0.099598
1020.58	0.006823
1023.47	0.571892
1026.37	0.006548
1029.26	0.467212
1032.15	0.262832
1035.05	0.00651
1037.94	0.018606
1040.83	0.147643
1043.72	0.584218
1046.62	0.141317
1049.51	0.258424
1052.4	0.020199
1055.29	0.520969
1058.19	0.511173
1061.08	0.026068
1063.97	0.506289
1066.87	0.674291
1069.76	0.720314
1072.65	0.494754
1075.54	0.3042
1078.43	0.546588
1081.33	0.935262
1084.22	0.294613
1087.11	0.327494
1090.01	0.001245
1092.9	0.419392
1095.79	0.014475
1098.68	0.32897
1101.58	0.365413
1104.47	0.539349
1107.36	0.069033
1110.26	0.31785
1113.15	0.624633
1116.04	0.298754
1118.93	0.455283
1121.83	0.318052
1124.72	0.532391
1127.61	0.179164
1130.5	0.224558
1133.4	0.011689
1136.29	0.047473
1139.18	0.002227
1142.08	0.30269
1144.97	0.012545
1147.86	0.816557
1150.75	0.062524
1153.65	0.363229
1156.54	0.010937
1159.43	0.472995
1162.32	0.22278
1165.22	0.323009
1168.11	0.226766
1171	0.039115
1173.89	0.436762
1176.79	0.26117
1179.68	0.240706
1182.57	0.7127
1185.46	0.188267
1188.36	0.59649
1191.25	0.030105
1194.14	0.025402
1197.04	0.23333
1199.93	0.124264
1202.82	0.368369
1205.71	0.379771
1208.61	0.38593
1211.5	0.055611
1214.39	0.672013
1217.29	0.506997
1220.18	0.357604
1223.07	0.432654
1225.96	0.50929
1228.86	0.008693
1231.75	0.419777
1234.64	0.434189
1237.53	0.334611
1240.43	0.493161
1243.32	0.465069
1246.21	0.045652
1249.11	0.49196
1252	0.223798
1254.89	0.800526
1257.78	0.099409
1260.67	0.417506
1263.57	0.240052
1266.46	0.620314
1269.35	0.780362
1272.25	0.644368
1275.14	0.330516
1278.03	0.011983
1280.92	0
