Measurement: Raman, 780 nm, unoriented, Raman Data Processed
Mineral: Brochantite
Rruff sample: R100199
Ideal chemistry: Cu^2+^_4_S^6+^O_4_(OH)_6_
Locality: Milpillas mine, Municipio de Santa Cruz, Sonora, Mexico
Source: Donald K Olson
Description: Loose green acicular crystals, MDO1 polytype
Raman shift (cm-1)	intensity
122.907	0
126.282	1.6859
129.657	1.6489
133.032	1.28741
136.406	1.21233
139.781	2.22729
143.156	2.78024
146.531	1.91111
149.906	2.10374
153.281	1.53986
156.655	0.474804
160.03	1.72703
163.405	2.16299
166.78	3.15422
170.155	1.71918
173.53	0.089493
176.904	0.051685
180.279	1.82333
183.654	0.886959
187.029	1.15968
190.404	0.97374
193.778	0.531338
197.153	1.5608
200.528	1.24172
203.903	2.41112
207.278	3.35921
210.652	2.04548
214.027	5.64608
217.402	3.45148
220.777	2.13205
224.152	2.57985
227.526	4.61477
230.901	3.7433
234.276	3.86533
237.651	3.25409
241.026	3.2764
244.401	4.92269
247.775	4.81644
251.15	5.3274
254.525	2.85825
257.9	3.33049
261.275	2.60304
264.649	3.16436
268.024	2.10808
271.399	2.20893
274.774	2.93629
278.149	1.35598
281.524	1.44253
284.898	1.93113
288.273	3.01958
291.648	0.574081
295.023	0.431431
298.398	1.5512
301.772	0.056232
305.147	0.075371
308.522	2.11452
311.897	1.0356
315.272	2.1124
318.647	0.190632
322.021	0.721703
325.396	2.60874
328.771	0.468559
332.146	1.3994
335.521	0.356731
338.895	1.67782
342.27	1.58282
345.645	2.06249
349.02	1.38146
352.395	1.63167
355.769	2.3702
359.144	2.0476
362.519	1.91351
365.894	3.18736
369.269	2.7678
372.644	1.4025
376.018	3.39583
379.393	1.74114
382.768	1.87018
386.143	2.47604
389.518	1.04553
392.892	1.04596
396.267	2.62174
399.642	2.34539
403.017	0.437836
406.392	2.93649
409.767	1.69883
413.141	0.372282
416.516	0.720335
419.891	1.91189
423.266	0.212908
426.641	0.492649
430.015	2.29374
433.39	3.19584
436.765	1.79099
440.14	2.52991
443.515	2.43438
446.889	2.10046
450.264	2.70735
453.639	1.71724
457.014	2.72431
460.389	2.79355
463.764	2.26838
467.138	1.4989
470.513	2.39472
473.888	1.43308
477.263	1.77049
480.638	2.9694
484.012	1.72507
487.387	0.114826
490.762	2.14077
494.137	2.71021
497.512	1.17463
500.887	1.63662
504.261	0.756823
507.636	0.855165
511.011	0.735714
514.386	0.684408
517.761	0.915251
521.135	0.375549
524.51	1.33596
527.885	0.568007
531.26	2.7504
534.635	0.961609
538.01	2.11246
541.384	2.07327
544.759	1.88168
548.134	1.91359
551.509	0.606178
554.884	3.54198
558.258	1.05178
561.633	1.94253
565.008	0.533838
568.383	2.52669
571.758	1.70358
575.132	1.67944
578.507	1.44338
581.882	3.13716
585.257	0.548271
588.632	1.52173
592.006	2.06636
595.381	2.36493
598.756	1.76189
602.131	2.18416
605.506	1.64077
608.881	0.88192
612.255	2.06736
615.63	0.723667
619.005	0.213905
622.38	0.755047
625.755	1.43787
629.129	0.01185
632.504	1.50383
635.879	0.127802
639.254	1.1782
642.629	1.76195
646.004	1.17013
649.378	0.537966
652.753	1.16435
656.128	0.848255
659.503	0.055788
662.878	0.132267
666.252	1.68697
669.627	1.41001
673.002	2.33266
676.377	2.39546
679.752	1.55359
683.126	1.27767
686.501	1.38167
689.876	1.13173
693.251	0.965645
696.626	0.163891
700	0.110912
703.375	1.27298
706.75	0.591396
710.125	0.081656
713.5	1.17722
716.875	1.48575
720.249	0.716663
723.624	1.49084
726.999	0.319582
730.374	2.0543
733.749	0.149561
737.124	0.252346
740.498	2.53871
743.873	1.44656
747.248	3.07277
750.623	2.35902
753.998	0.558329
757.372	2.5902
760.747	0.131605
764.122	1.04233
767.497	1.18014
770.872	1.47391
774.246	1.75343
777.621	0.026125
780.996	2.24907
784.371	0.975975
787.746	1.74642
791.12	1.55013
794.495	0.194487
797.87	0.812954
801.245	1.6035
804.62	2.96449
807.995	1.1125
811.369	1.55615
814.744	2.47627
818.119	1.7139
821.494	1.47929
824.869	3.06177
828.244	2.39478
831.618	2.10969
834.993	1.96652
838.368	3.00919
841.743	1.05267
845.118	2.33873
848.492	1.07113
851.867	1.87789
855.242	1.51675
858.617	3.08443
861.992	2.42135
865.366	4.05566
868.741	2.45952
872.116	2.98069
875.491	2.47631
878.866	1.95646
882.24	2.02778
885.615	0.726831
888.99	1.59519
892.365	1.8065
895.74	2.43584
899.115	1.87677
902.489	1.81606
905.864	0.89262
909.239	0.049843
912.614	1.28303
915.989	0.22121
919.364	0.145283
922.738	1.4564
926.113	1.49078
929.488	0.860838
932.863	1.48844
936.237	0.684195
939.612	0.337387
942.987	1.72041
946.362	2.57624
949.737	3.13355
953.112	3.47491
956.486	4.97833
959.861	5.97966
963.236	5.14941
966.611	6.82552
969.986	5.67583
973.361	3.06849
976.735	2.06616
980.11	2.76278
983.485	1.39389
986.86	0.456577
990.235	1.61412
993.609	0.580124
996.984	1.03783
1000.36	0.831446
1003.73	0.345535
1007.11	0.151442
1010.48	1.59559
1013.86	1.89138
1017.23	1.99309
1020.61	0.413387
1023.98	0.874128
1027.36	1.91252
1030.73	1.35246
1034.11	0.601526
1037.48	0.657951
1040.86	1.64628
1044.23	1.82657
1047.61	2.79122
1050.98	0.534855
1054.36	1.04066
1057.73	0.976364
1061.11	2.09544
1064.48	0.911308
1067.86	1.2957
1071.23	2.45145
1074.61	1.84733
1077.98	0.995157
1081.35	1.06101
1084.73	0.556438
1088.1	1.441
1091.48	0.978455
1094.85	0.02799
1098.23	1.1883
1101.6	1.35701
1104.98	0.512383
1108.35	0.034407
1111.73	0.791229
1115.1	1.27459
1118.48	1.69702
1121.85	2.54185
1125.23	0.79936
1128.6	1.56879
1131.98	2.29646
1135.35	1.26595
1138.73	1.8842
1142.1	0.674572
1145.48	1.72449
1148.85	0.309923
1152.23	1.27268
1155.6	0.560518
1158.97	0.778528
1162.35	0.597672
1165.72	1.26043
1169.1	1.81539
1172.47	1.70141
1175.85	1.46923
1179.22	1.01258
1182.6	1.03053
1185.97	0.056347
1189.35	3.16123
1192.72	1.64563
1196.1	1.21411
1199.47	1.58165
1202.85	3.88234
1206.22	1.51222
1209.6	1.82772
1212.97	1.15094
1216.35	0.75675
1219.72	0.394466
1223.1	1.79412
1226.47	0.93918
1229.85	0.135519
1233.22	0.441223
1236.6	1.09349
1239.97	1.55824
1243.35	2.13609
1246.72	2.00836
1250.1	1.96614
1253.47	2.13598
1256.85	1.27038
1260.22	1.67293
1263.59	0.598875
1266.97	0.878954
1270.34	0.967897
1273.72	1.2371
1277.09	1.66524
1280.47	1.73805
1283.84	0.742374
