Measurement: Raman, 780 nm, unoriented, Raman Data Processed
Mineral: Brochantite
Rruff sample: R060117
Ideal chemistry: Cu^2+^_4_S^6+^O_4_(OH)_6_
Locality: M'sesa mine, Likasi, Katanga Province, Democratic Republic of the Congo
Source: University of Arizona Mineral Museum
Description: Emerald-green thick acicular crystals
Measured chemistry: Cu_4.00_S_1.00_O_4_(OH)_6_
Raman shift (cm-1)	intensity
144.576	0
147.469	1.02632
150.362	1.42481
153.254	2.00324
156.147	1.53602
159.04	1.17516
161.932	1.07789
164.825	0.578939
167.718	0.554037
170.61	0.581274
173.503	0.554449
176.396	0.616272
179.288	0.003996
182.181	1.4192
185.074	0.476835
187.966	0.77879
190.859	0.889473
193.752	1.17597
196.645	0.873655
199.537	0.215572
202.43	0.981874
205.323	0.042501
208.215	1.82449
211.108	1.37955
214.001	1.09509
216.893	0.643223
219.786	1.217
222.679	2.22855
225.572	2.14543
228.464	2.38157
231.357	3.51973
234.25	3.50929
237.142	3.91789
240.035	4.66789
242.928	4.27023
245.821	5.23658
248.713	3.35186
251.606	2.31343
254.499	2.18326
257.391	0.430052
260.284	0.580338
263.177	0.799309
266.069	0.122513
268.962	0.874624
271.855	0.498337
274.748	1.49754
277.64	0.313238
280.533	0.429718
283.426	0.0254
286.318	0.386282
289.211	1.03423
292.104	0.386413
294.996	0.971067
297.889	0.831259
300.782	0.60133
303.675	0.624357
306.567	1.0785
309.46	0.729631
312.353	0.415729
315.245	0.789023
318.138	0.919689
321.031	1.57766
323.923	0.558458
326.816	1.49624
329.709	0.62011
332.601	0.915794
335.494	0.76075
338.387	0.283195
341.279	0.734043
344.172	1.65098
347.065	0.774483
349.958	0.136303
352.85	1.21956
355.743	1.11522
358.636	0.074433
361.528	0.876488
364.421	0.732401
367.314	0.021302
370.207	1.28806
373.099	1.10188
375.992	1.02501
378.885	1.35743
381.777	1.47315
384.67	1.3505
387.563	0.876545
390.455	0.59076
393.348	1.00185
396.241	0.552837
399.134	0.966065
402.026	0.696971
404.919	0.488194
407.812	0.735683
410.704	1.01779
413.597	1.0381
416.49	0.827393
419.382	0.312096
422.275	0.391583
425.168	0.669322
428.06	0.433126
430.953	0.112906
433.846	0.71766
436.739	0.670402
439.631	1.46751
442.524	0.009778
445.417	0.876183
448.309	2.12872
451.202	1.06998
454.095	0.358853
456.988	0.696724
459.88	0.86714
462.773	1.20062
465.666	1.81627
468.558	1.80717
471.451	1.00996
474.344	1.85521
477.236	1.94122
480.129	1.52887
483.022	0.775015
485.914	1.82239
488.807	0.791705
491.7	1.50807
494.592	0.721655
497.485	0.934614
500.378	1.20981
503.271	0.090799
506.163	0.975479
509.056	0.82517
511.949	0.333694
514.841	0.904236
517.734	0.573729
520.627	0.114389
523.519	0.485303
526.412	1.11289
529.305	0.152915
532.198	0.165582
535.09	0.125137
537.983	0.575657
540.876	0.849333
543.768	0.855789
546.661	1.07345
549.554	0.990575
552.447	0.623717
555.339	0.622213
558.232	0.09776
561.125	1.09992
564.017	0.942966
566.91	0.538552
569.803	0.213676
572.695	0.572554
575.588	0.212619
578.481	0.118899
581.374	0.309153
584.266	0.458085
587.159	0.750335
590.052	0.043745
592.944	0.890953
595.837	1.03568
598.73	1.21341
601.622	0.841204
604.515	1.1782
607.408	0.790113
610.301	1.31325
613.193	0.614841
616.086	1.05546
618.979	1.02032
621.871	0.708575
624.764	0.494725
627.657	1.30055
630.549	0.018829
633.442	1.02384
636.335	0.336651
639.227	1.29224
642.12	0.33272
645.013	0.511398
647.905	0.121557
650.798	0.943826
653.691	0.611091
656.584	0.591903
659.476	0.072998
662.369	0.68628
665.262	1.3641
668.154	0.096802
671.047	0.570889
673.94	0.425863
676.832	0.72074
679.725	0.89716
682.618	0.490637
685.511	0.236083
688.403	0.848938
691.296	1.09513
694.189	0.510225
697.081	0.921633
699.974	0.784091
702.867	0.559269
705.76	0.483345
708.652	0.944765
711.545	0.595879
714.438	0.117546
717.33	0.785482
720.223	0.185576
723.116	0.415807
726.008	0.597284
728.901	0.407682
731.794	0.458767
734.687	0.410316
737.579	0.266718
740.472	0.454194
743.365	0.603124
746.257	0.167355
749.15	0.361097
752.043	0.194061
754.935	0.11225
757.828	0.657005
760.721	0.543801
763.614	0.515191
766.506	0.669983
769.399	1.04024
772.292	0.140898
775.184	0.972052
778.077	1.01366
780.97	0.761299
783.862	0.040204
786.755	0.656674
789.648	1.01973
792.54	0.52808
795.433	0.90105
798.326	0.60686
801.218	0.461796
804.111	0.804564
807.004	1.22094
809.897	1.39363
812.789	0.726933
815.682	1.25647
818.575	1.43023
821.467	1.74328
824.36	0.950161
827.253	1.37143
830.145	1.15466
833.038	1.77044
835.931	1.4501
838.824	1.02709
841.716	1.35886
844.609	0.472385
847.502	0.594705
850.394	1.83209
853.287	0.310287
856.18	1.09136
859.072	1.64222
861.965	1.74833
864.858	1.40364
867.751	1.59406
870.643	1.91706
873.536	1.22275
876.429	1.46927
879.321	1.32611
882.214	0.734227
885.107	0.71637
888	1.32269
890.892	0.431134
893.785	0.431022
896.678	0.021906
899.57	0.574386
902.463	1.10247
905.356	0.873466
908.248	0.195709
911.141	0.706839
914.034	0.458334
916.927	0.833456
919.819	0.0643917
922.712	0.193524
925.605	0.119797
928.497	0.29897
931.39	0.070358
934.283	0.009267
937.175	0.233369
940.068	0.14276
942.961	0.659064
945.854	0.696415
948.746	0.666757
951.639	0.774392
954.532	1.4125
957.424	1.52572
960.317	1.79261
963.21	1.95238
966.102	2.93157
968.995	4.36168
971.888	4.88322
974.78	3.98867
977.673	3.60998
980.566	2.01386
983.458	1.34492
986.351	1.01016
989.244	0.642158
992.137	0.462198
995.029	0.313882
997.922	0.148228
1000.82	0.533324
1003.71	0.026077
1006.6	0.054456
1009.49	0.010038
1012.38	0.652225
1015.28	0.421027
1018.17	0.87175
1021.06	0.962191
1023.96	0.746247
1026.85	0.730951
1029.74	0.239083
1032.63	1.04636
1035.53	0.692958
1038.42	0.367191
1041.31	0.382479
1044.2	0.806027
1047.1	0.891764
1049.99	0.382303
1052.88	0.629991
1055.78	0.174119
1058.67	1.33066
1061.56	0.263855
1064.45	0.426258
1067.35	0.133537
1070.24	1.17495
1073.13	0.712297
1076.03	0.801428
1078.92	0.743749
1081.81	0.963213
1084.7	0.514026
1087.6	0.908214
1090.49	1.378
1093.38	0.961029
1096.27	0.52492
1099.17	1.09982
1102.06	0.614199
1104.95	0.181899
1107.84	1.04343
1110.74	0.246628
1113.63	0.700548
1116.52	0.552152
1119.41	0.668313
1122.31	0.995306
1125.2	0.685705
1128.09	1.5469
1130.99	0.550962
1133.88	0.735065
1136.77	0.661708
1139.66	0.414907
1142.56	0.27938
1145.45	0.412746
1148.34	0.513682
1151.23	0.562509
1154.13	0.034522
1157.02	0.1767
1159.91	1.06229
1162.81	1.21585
1165.7	0.058667
1168.59	1.0192
1171.48	0.8467
1174.38	0.004341
1177.27	0.537575
1180.16	0.083448
1183.06	1.51658
1185.95	0.815102
1188.84	0.392894
1191.73	0.823782
1194.62	0.526829
1197.52	0.881468
1200.41	0.534624
1203.3	0.851082
1206.2	1.01828
1209.09	0.73006
1211.98	0.222099
1214.87	0.322963
1217.77	0.451219
1220.66	0.480677
1223.55	0.954168
1226.44	1.17538
1229.34	1.2927
1232.23	0.753198
1235.12	0.585452
1238.02	0.593387
1240.91	0.200938
1243.8	0.995074
1246.69	0.604537
1249.59	0.915267
1252.48	1.0075
1255.37	0.807874
1258.27	0.730626
1261.16	0.603608
1264.05	0.724874
1266.94	0.757195
1269.84	0.672723
1272.73	1.25872
1275.62	0.174013
1278.51	0.749672
1281.41	1.0166
1284.3	0.331024
