Measurement: Raman, 532 nm, unoriented, Raman Data Processed
Mineral: Brownmillerite
Rruff sample: R130105
Ideal chemistry: Ca_2_Fe^3+^AlO_5_
Locality: Ettringer Feld, Bellerberg volcano, Ettringen, Mayen, Eifel, Rhineland-Palatinate, Germany
Source: Donald Doell
Description: Brownish-red platy crystals. Diffraction indicates an I-centered lattice
Raman shift (cm-1)	intensity
239.782	676.862
242.675	680.466
245.567	686.143
248.46	692.511
251.353	693.052
254.245	695.998
257.138	700.831
260.031	707.043
262.924	710.298
265.816	713.428
268.709	714.734
271.602	717.904
274.494	718.656
277.387	724.127
280.28	727.78
283.173	728.835
286.065	735.506
288.958	739.346
291.851	738.944
294.743	740.972
297.636	746.822
300.529	750.038
303.421	751.691
306.314	755.664
309.207	761.372
312.099	765.645
314.992	766.121
317.885	770.77
320.778	771.424
323.67	777.981
326.563	780.733
329.456	785.568
332.348	788.158
335.241	793.793
338.134	795.862
341.027	800.993
343.919	803.846
346.812	808.633
349.705	818.716
352.597	813.44
355.49	817.678
358.383	818.375
361.276	820.004
364.168	824.97
367.061	828.432
369.954	830.817
372.846	833.884
375.739	837.054
378.632	841.135
381.524	843.89
384.417	842.717
387.31	852.358
390.202	854.247
393.095	854.294
395.988	860.516
398.881	860.284
401.773	862.232
404.666	866.807
407.559	867.291
410.451	873.383
413.344	878.567
416.237	881.179
419.13	883.776
422.022	884.169
424.915	886.776
427.808	892.871
430.7	893.906
433.593	896.799
436.486	901.178
439.378	904.151
442.271	912.057
445.164	914.226
448.057	916.563
450.949	917.964
453.842	919.386
456.735	920.594
459.627	920.302
462.52	924.258
465.413	931.264
468.305	931.358
471.198	939.261
474.091	942.133
476.983	946.784
479.876	949.357
482.769	949.501
485.662	952.324
488.554	954.008
491.447	960.499
494.34	963.314
497.232	961.28
500.125	969.037
503.018	970.575
505.911	974.772
508.803	975.335
511.696	979.533
514.589	981.623
517.481	984.047
520.374	983.939
523.267	991.046
526.159	996.553
529.052	998.458
531.945	998.612
534.837	1012.3
537.73	1010.16
540.623	1013.21
543.516	1010.14
546.408	1014.06
549.301	1022.1
552.194	1021.83
555.086	1025.22
557.979	1027.83
560.872	1030.02
563.764	1031
566.657	1032.9
569.55	1037.79
572.443	1042.95
575.335	1047.09
578.228	1047.39
581.121	1050.04
584.013	1057.64
586.906	1063.36
589.799	1063.96
592.692	1065.7
595.584	1074
598.477	1076.42
601.37	1075.8
604.262	1079.88
607.155	1087.32
610.048	1087.96
612.94	1090.95
615.833	1094.45
618.726	1102.5
621.619	1106.11
624.511	1105.5
627.404	1107.41
630.297	1113.23
633.189	1117.57
636.082	1120.28
638.975	1118.85
641.867	1124.64
644.76	1128.79
647.653	1130.62
650.545	1137.89
653.438	1141.23
656.331	1145.52
659.224	1148.95
662.116	1150.56
665.009	1159.67
667.902	1161.37
670.794	1165.25
673.687	1166.2
676.58	1174.08
679.472	1172.84
682.365	1179.1
685.258	1180.57
688.151	1189.32
691.043	1194.43
693.936	1197.8
696.829	1200.21
699.721	1200.04
702.614	1203.97
705.507	1210.33
708.399	1216.85
711.292	1214.67
714.185	1217.65
717.078	1222.76
719.97	1226.85
722.863	1226.7
725.756	1231.16
728.648	1236.13
731.541	1238.82
734.434	1245.07
737.327	1243.06
740.219	1247.41
743.112	1249.84
746.005	1256.87
748.897	1258.98
751.79	1257.63
754.683	1255.87
757.575	1258.1
760.468	1261.24
763.361	1267.72
766.254	1273.89
769.146	1273.38
772.039	1274.49
774.932	1277.37
777.824	1280.77
780.717	1284.5
783.61	1281.51
786.502	1283.48
789.395	1288.96
792.288	1296.76
795.181	1303.19
798.073	1301.42
800.966	1302.9
803.859	1306.17
806.751	1307.63
809.644	1312.6
812.537	1313.98
815.429	1320.22
818.322	1322.88
821.215	1335.7
824.107	1333.73
827	1335.49
829.893	1335.49
832.786	1335.02
835.678	1341.45
838.571	1345.11
841.464	1351.29
844.356	1359.77
847.249	1358.34
850.142	1360.42
853.034	1360.95
855.927	1368.06
858.82	1373.69
861.713	1374.48
864.605	1379.33
867.498	1377.13
870.391	1385.35
873.283	1387.15
876.176	1390.57
879.069	1392.09
881.962	1395.33
884.854	1398.39
887.747	1404.29
890.64	1405.61
893.532	1407.61
896.425	1409.98
899.318	1416.06
902.21	1422.2
905.103	1426.43
907.996	1428.23
910.889	1431.43
913.781	1434.76
916.674	1439.28
919.567	1444.64
922.459	1447.54
925.352	1455.04
928.245	1454.96
931.137	1456.91
934.03	1466.18
936.923	1465.87
939.816	1469.61
942.708	1473.28
945.601	1480.52
948.494	1483.91
951.386	1482.34
954.279	1479.77
957.172	1484.55
960.064	1486.98
962.957	1496.92
965.85	1505.68
968.742	1511.57
971.635	1511.33
974.528	1515.75
977.421	1529.64
980.313	1522.25
983.206	1523.31
986.099	1529.63
988.991	1532.71
991.884	1536.13
994.777	1544.36
997.669	1545.57
1000.56	1549
1003.46	1550.22
1006.35	1555.08
1009.24	1563.74
1012.13	1566.14
1015.03	1568.81
1017.92	1573.07
1020.81	1576.98
1023.7	1578.02
1026.6	1585.02
1029.49	1589.25
1032.38	1592.38
1035.28	1591.71
1038.17	1596.91
1041.06	1597.16
1043.95	1606.73
1046.85	1608.56
1049.74	1613.42
1052.63	1618.46
1055.52	1618.72
1058.42	1626.42
1061.31	1625.55
1064.2	1631.29
1067.09	1638.43
1069.99	1644.31
1072.88	1648.81
1075.77	1651.16
1078.66	1661.16
1081.56	1664.85
1084.45	1672.64
1087.34	1678.88
1090.24	1682.59
1093.13	1684.44
1096.02	1680.9
1098.91	1684.3
1101.81	1687.66
1104.7	1688.88
1107.59	1691.72
1110.48	1695.33
1113.38	1701.07
1116.27	1706.84
1119.16	1708.22
1122.06	1714.85
1124.95	1715.58
1127.84	1726.11
1130.73	1724.73
1133.63	1734.15
1136.52	1735.96
1139.41	1736.57
1142.3	1738.79
1145.2	1744.46
1148.09	1750.82
1150.98	1753.02
1153.88	1756.06
1156.77	1759.19
1159.66	1764
1162.55	1768.28
1165.45	1771.86
1168.34	1773.29
1171.23	1783.57
1174.12	1787.81
1177.02	1789.35
1179.91	1797.15
1182.8	1799.07
1185.69	1801.47
1188.59	1806.1
1191.48	1809.13
1194.37	1814.32
1197.27	1823.02
1200.16	1829.21
1203.05	1830.85
1205.94	1835.04
1208.84	1843.61
1211.73	1850.55
1214.62	1846.75
1217.52	1849.12
1220.41	1857.64
1223.3	1862.97
1226.19	1864.94
1229.09	1868.83
1231.98	1876.86
1234.87	1879.06
1237.76	1880.22
1240.66	1887.47
1243.55	1892.76
1246.44	1902
1249.33	1904.49
1252.23	1904.34
1255.12	1908.93
1258.01	1920.81
1260.9	1932.13
1263.8	1930.99
1266.69	1932.52
1269.58	1940.56
1272.48	1939.59
1275.37	1947.24
1278.26	1948.3
1281.15	1958.96
1284.05	1961.79
1286.94	1964.29
1289.83	1971.31
1292.72	1970.89
1295.62	1978.73
1298.51	1986.4
1301.4	1992.9
