Measurement: Raman, 785 nm, unoriented, Raman Data Processed
Mineral: Buddingtonite
Rruff sample: R061115
Ideal chemistry: (N^3-^H_4_)AlSi_3_O_8_
Locality: Sharon Heights, Menlo Park, Santa Clara County, California, USA
Source: Michael Scott
Description: Grey fine-grained massive
Raman shift (cm-1)	intensity
193.627	0
196.52	45
199.413	454.547
202.305	571.031
205.198	815.094
208.091	220.68
210.983	275.773
213.876	577.539
216.769	558.719
219.661	1000.34
222.554	1136.16
225.447	889.336
228.34	902.172
231.232	860.047
234.125	952.031
237.018	1117.98
239.91	1162.79
242.803	1158.44
245.696	1054.02
248.589	1043.02
251.481	1080.76
254.374	1180.41
257.267	1107.04
260.159	1431
263.052	1107.01
265.945	1027.4
268.837	914.648
271.73	873.617
274.623	826.234
277.515	829.109
280.408	1099.95
283.301	1129.26
286.194	1334.96
289.086	1091.69
291.979	787.984
294.872	668.352
297.764	585.57
300.657	577.406
303.55	804.289
306.442	739.32
309.335	750.953
312.228	693.492
315.121	251.516
318.013	141.688
320.906	118.68
323.799	292.242
326.691	501.836
329.584	599.891
332.477	301.781
335.37	251
338.262	261.477
341.155	31.4141
344.048	52.1016
346.94	149.945
349.833	133.867
352.726	256.234
355.618	252.43
358.511	6.15625
361.404	249.414
364.296	124.117
367.189	22.1562
370.082	18.3828
372.975	166
375.867	181.117
378.76	312.812
381.653	221.992
384.545	170.32
387.438	41.8906
390.331	205.961
393.224	269.453
396.116	210.75
399.009	333.383
401.902	196.836
404.794	61.1719
407.687	2.125
410.58	112.852
413.472	133.102
416.365	342.469
419.258	286.305
422.151	189.984
425.043	74.1562
427.936	132.344
430.829	217.961
433.721	186.719
436.614	246.555
439.507	215.984
442.399	185.664
445.292	52.7266
448.185	229.945
451.077	283.859
453.97	276.953
456.863	186.852
459.756	89.4141
462.648	224.469
465.541	317.555
468.434	468.992
471.326	253.297
474.219	277.398
477.112	193.609
480.005	36.1797
482.897	53.2344
485.79	20.3906
488.683	525.344
491.575	335.844
494.468	318.945
497.361	199.75
500.253	19.25
503.146	209.938
506.039	300.906
508.931	370.406
511.824	632.094
514.717	722.094
517.61	532.43
520.502	417.969
523.395	264.367
526.288	283.117
529.18	356.914
532.073	261.094
534.966	222.133
537.859	282.516
540.751	247.031
543.644	192.312
546.537	282.086
549.429	127.898
552.322	0.335938
555.215	200.984
558.107	390.586
561	220.57
563.893	234.172
566.785	31.8047
569.678	110.234
572.571	68.2578
575.463	293.75
578.356	285.031
581.249	258.477
584.142	198.781
587.034	457.859
589.927	58.7578
592.82	94.8984
595.712	91.2109
598.605	15.5078
601.498	62.1562
604.39	248.477
607.283	221.938
610.176	185.648
613.069	20.6016
615.961	20.9922
618.854	36.7656
621.747	185.07
624.639	246.797
627.532	260.688
630.425	139.828
633.317	178.43
636.21	170.344
639.103	95.9219
641.996	80.6641
644.888	39.4688
647.781	296.578
650.674	92.4453
653.566	127.188
656.459	257.016
659.352	368.312
662.245	39.5625
665.137	36.6016
668.03	309.992
670.923	61.5234
673.815	140.25
676.708	286.938
679.601	538.922
682.493	264.367
685.386	296.039
688.279	301.484
691.172	264.602
694.064	329.25
696.957	528.453
699.85	346.922
702.742	518.516
705.635	394.195
708.528	404.32
711.42	314.195
714.313	302.844
717.206	283.875
720.098	482.82
722.991	380.859
725.884	341.719
728.777	298.523
731.669	362.875
734.562	263.273
737.455	416.414
740.347	392.492
743.24	390.602
746.133	141.562
749.025	313.359
751.918	263.555
754.811	140.555
757.704	62.5703
760.596	120.094
763.489	103.273
766.382	203.188
769.274	143.766
772.167	119.828
775.06	169.32
777.952	172.375
780.845	66.1953
783.738	1.30469
786.631	121.828
789.523	190.773
792.416	120.078
795.309	212.719
798.201	106.094
801.094	323.641
803.987	81.3438
806.88	17.8359
809.772	49.8672
812.665	240.508
815.558	11.6094
818.45	309.555
821.343	95.5938
824.236	197.32
827.128	92.1172
830.021	112.609
832.914	128.438
835.807	170.699
838.699	80.9609
841.592	93.3398
844.485	148.797
847.377	17.5898
850.27	64.7773
853.163	152.492
856.055	102.316
858.948	7.91797
861.841	197.207
864.734	140.078
867.626	136.426
870.519	243.223
873.412	61.7656
876.304	91.8164
879.197	139.793
882.09	278.992
884.982	166.867
887.875	125.234
890.768	71.3281
893.66	155.5
896.553	182.531
899.446	259.008
902.339	149.391
905.231	54.1406
908.124	303.219
911.017	199.059
913.909	167.008
916.802	185.828
919.695	113.797
922.587	127.523
925.48	265.465
928.373	49.2852
931.266	277.207
934.158	294.797
937.051	171.723
939.944	203.266
942.836	64.0781
945.729	252.41
948.622	245.652
951.514	284.074
954.407	217.699
957.3	362.34
960.192	203.41
963.085	129.125
965.978	100.894
968.871	260.746
971.763	45.9023
974.656	53.8945
977.549	53.3789
980.441	177.098
983.334	478.141
986.227	311.785
989.12	156.008
992.012	185.398
994.905	226.188
997.798	123.762
1000.69	14.0938
1003.58	176.191
1006.48	219.098
1009.37	186.606
1012.26	216.039
1015.15	138.121
1018.05	55.7227
1020.94	151.758
1023.83	58.4648
1026.72	224.477
1029.62	121.383
1032.51	143.793
1035.4	102.805
1038.3	48.7891
1041.19	1.91406
1044.08	134.832
1046.97	111.805
1049.87	251.027
1052.76	115.508
1055.65	229.035
1058.54	42.8477
1061.44	204.047
1064.33	82.9297
1067.22	334.332
1070.12	97.8047
1073.01	115.582
1075.9	74.8047
1078.79	287.32
1081.69	150.211
1084.58	171.82
1087.47	187.84
1090.36	70.5859
1093.26	153.156
1096.15	37.8359
1099.04	100.957
1101.93	0.089844
1104.83	126.453
1107.72	248.684
1110.61	213.461
1113.51	187.523
1116.4	84.4883
1119.29	268.269
1122.18	149.754
1125.08	295.461
1127.97	240.621
1130.86	202.43
1133.76	359.477
1136.65	348.328
1139.54	127.609
1142.43	368.277
1145.33	158.031
1148.22	352.055
1151.11	253.32
1154	399.656
1156.9	189.773
1159.79	209.551
1162.68	318.961
1165.57	78.832
1168.47	144.156
1171.36	101.789
1174.25	59.7969
1177.14	325.918
1180.04	74.1758
1182.93	123.566
1185.82	205.672
1188.72	239.793
1191.61	108.734
1194.5	8.30469
1197.39	158.719
1200.29	86.4453
1203.18	58.6836
1206.07	25.5156
1208.96	174.219
1211.86	188.785
1214.75	4.02344
1217.64	111.59
1220.54	259.703
1223.43	266.363
1226.32	135.012
1229.21	102.731
1232.11	226.652
