Measurement: Raman, 532 nm, unoriented, Raman Data Processed
Mineral: Buddingtonite
Rruff sample: R061115
Ideal chemistry: (N^3-^H_4_)AlSi_3_O_8_
Locality: Sharon Heights, Menlo Park, Santa Clara County, California, USA
Source: Michael Scott
Description: Grey fine-grained massive
Raman shift (cm-1)	intensity
151.938	0
154.831	35.2344
157.724	70.0664
160.616	10.6074
163.509	106.588
166.402	107.861
169.294	149.41
172.187	26.6113
175.08	200.389
177.972	198.225
180.865	245.193
183.758	255.346
186.65	209.322
189.543	158.119
192.436	205.42
195.329	160.199
198.221	128.109
201.114	73.3828
204.007	9.61133
206.899	31.5508
209.792	15.4102
212.685	126.707
215.577	129.728
218.47	186.756
221.363	63.0117
224.256	117.609
227.148	213.315
230.041	308.961
232.934	241.078
235.826	164.988
238.719	257.492
241.612	266.508
244.505	360.326
247.397	244.728
250.29	354.926
253.183	420.316
256.075	391.027
258.968	297.107
261.861	291.6
264.753	199.203
267.646	252.07
270.539	297.943
273.431	347.203
276.324	285.361
279.217	261.853
282.11	264.959
285.002	257.275
287.895	364.57
290.788	407.07
293.68	309.69
296.573	344.225
299.466	369.859
302.358	211.272
305.251	315.055
308.144	242.887
311.036	228.019
313.929	271.981
316.822	296.506
319.715	202.568
322.607	218.272
325.5	297.662
328.393	122
331.285	78.5918
334.178	126.504
337.071	105.541
339.964	159.008
342.856	42.8633
345.749	62.4453
348.642	116.072
351.534	33.3301
354.427	52.0918
357.32	23.4336
360.212	122.197
363.105	230.287
365.998	247.26
368.89	237.336
371.783	137.461
374.676	116.397
377.569	119.592
380.461	149.135
383.354	206.301
386.247	233.248
389.139	417.953
392.032	402.004
394.925	364.68
397.817	308.973
400.71	204.465
403.603	157.33
406.495	83.6973
409.388	245.426
412.281	155.633
415.174	103.281
418.066	26.4551
420.959	83
423.852	183.301
426.744	222.184
429.637	71.834
432.53	34.8145
435.423	108.814
438.315	14.9062
441.208	269.375
444.101	84.9219
446.993	153.973
449.886	93.3223
452.779	32.4512
455.671	5.38281
458.564	8.10938
461.457	13.4062
464.349	76.2793
467.242	76.2773
470.135	112.775
473.028	158.779
475.92	164.299
478.813	312.688
481.706	147.965
484.598	181.756
487.491	128.228
490.384	100.562
493.276	98.5293
496.169	185.961
499.062	227.867
501.955	220.961
504.847	230.732
507.74	227.191
510.633	190.576
513.525	236.789
516.418	295.209
519.311	316.473
522.203	306.217
525.096	305.787
527.989	174.496
530.882	45.4863
533.774	76.9727
536.667	32.8496
539.56	124.963
542.452	160.002
545.345	327.459
548.238	338.221
551.13	226.828
554.023	306.191
556.916	97.666
559.808	230.185
562.701	316.082
565.594	223.068
568.487	293.215
571.379	197.387
574.272	276.213
577.165	312.707
580.057	332.625
582.95	450.008
585.843	565.045
588.736	549.453
591.628	522.438
594.521	538.232
597.414	488.315
600.306	257.787
603.199	315.19
606.092	380.275
608.984	454.469
611.877	512.356
614.77	506.609
617.663	482.477
620.555	547.098
623.448	720.684
626.341	685.479
629.233	691.627
632.126	394.867
635.019	120.43
637.911	184.221
640.804	134.051
643.697	52.3516
646.59	102.166
649.482	77.9824
652.375	8.51367
655.268	37.6816
658.16	136.012
661.053	227.068
663.946	253.326
666.838	495.963
669.731	281.94
672.624	198.691
675.516	158.596
678.409	115.238
681.302	205.519
684.195	282.465
687.087	301.291
689.98	519.838
692.873	460.25
695.765	446.846
698.658	375.123
701.551	340.572
704.443	255.537
707.336	192.769
710.229	291.188
713.121	334.648
716.014	330.676
718.907	321.416
721.8	311.742
724.692	278.578
727.585	256.541
730.478	368.144
733.37	364.44
736.263	482.422
739.156	383.527
742.048	297.518
744.941	285.469
747.834	367.285
750.727	434.219
753.619	665.326
756.512	650.439
759.405	603.404
762.297	532.906
765.19	593.891
768.083	591.93
770.976	747.246
773.868	548.039
776.761	618.871
779.654	505.519
782.546	350.598
785.439	451.008
788.332	438.377
791.224	351.508
794.117	324.748
797.01	158.227
799.903	207.457
802.795	20.1484
805.688	63.5879
808.581	113.625
811.473	100.5
814.366	15.9609
817.259	386.584
820.151	810.197
823.044	1103.34
825.937	924.502
828.83	928.68
831.722	1028.01
834.615	1057.36
837.508	962.402
840.4	783.309
843.293	747.656
846.186	753.691
849.078	897.203
851.971	811.121
854.864	747.508
857.756	741.426
860.649	657.316
863.542	592.922
866.434	565.25
869.327	389.938
872.22	414.488
875.113	426.281
878.005	453.656
880.898	364.84
883.791	389.984
886.683	330.82
889.576	372.336
892.469	514.324
895.361	383.484
898.254	144.606
901.147	133.957
904.04	143.43
906.932	271.547
909.825	16.625
912.718	47.207
915.61	14.8672
918.503	44.7891
921.396	292.481
924.288	145
927.181	222.731
930.074	98.8789
932.967	55.1289
935.859	40.2383
938.752	211.309
941.645	238.902
944.537	193.856
947.43	279.133
950.323	145.019
953.216	48.6875
956.108	173.719
959.001	118.703
961.894	169.719
964.786	330.555
967.679	273.504
970.572	294.945
973.464	59.0352
976.357	102.832
979.25	44.5391
982.143	113.981
985.035	110.727
987.928	330.957
990.821	256.434
993.713	124.344
996.606	16.5625
999.499	40.0469
1002.39	23.9531
1005.28	175.93
1008.18	55.8242
1011.07	195.301
1013.96	283.125
1016.86	118.801
1019.75	115.004
1022.64	377.984
1025.53	322.883
1028.43	417.426
1031.32	274.68
1034.21	350.699
1037.1	339.832
1040	377.629
1042.89	104.992
1045.78	99.4062
1048.67	240.07
1051.57	83.3633
1054.46	61.8984
1057.35	43.3828
1060.24	17.75
1063.14	9.77344
1066.03	159.758
1068.92	97.5156
1071.82	158.348
1074.71	481.406
1077.6	457.477
1080.49	194.934
1083.39	191.84
1086.28	22.8672
1089.17	228.859
1092.07	70.4609
1094.96	6.62109
1097.85	74.0156
1100.74	1.13281
1103.64	132.43
1106.53	247.273
1109.42	155.16
1112.31	160.574
1115.21	271.977
1118.1	217.863
1120.99	184.418
1123.88	311.234
1126.78	223.41
1129.67	91.4492
1132.56	256.801
1135.45	271.406
1138.35	187.859
1141.24	290.41
1144.13	230.781
1147.03	263.926
1149.92	158.879
1152.81	166.445
1155.7	275.781
1158.6	168.102
1161.49	208.121
1164.38	187.758
1167.28	99.9297
1170.17	109.129
1173.06	30.3789
1175.95	63.3359
1178.85	108.566
1181.74	247.195
1184.63	18.1836
1187.52	153.801
1190.42	149.644
1193.31	133.547
1196.2	9.78906
1199.1	131.531
1201.99	184.789
1204.88	239.809
1207.77	93.1641
1210.67	214.773
1213.56	302.734
1216.45	244.215
1219.34	145.898
1222.24	192.328
1225.13	302.266
1228.02	301.773
1230.91	119.945
1233.81	87.0547
1236.7	134.602
1239.59	73.918
1242.48	199.223
1245.38	59.3125
1248.27	62.375
1251.16	185.191
1254.06	30.7266
1256.95	53.6641
1259.84	20.0664
1262.73	44.9492
1265.63	263.93
1268.52	233.684
1271.41	218.293
1274.31	350.023
1277.2	409.434
1280.09	93.0508
1282.98	151.828
1285.88	54.918
1288.77	138.617
1291.66	43.1875
