Measurement: Raman, 780 nm, unoriented, Raman Data Processed
Mineral: Bunsenite
Rruff sample: R080121
Ideal chemistry: Ni^2+^O
Locality: Johanngeorgenstadt, Saxony, Germany
Source: William W. Pinch
Description: Dark green octahedra
Measured chemistry: Ni_1.00_O
Raman shift (cm-1)	intensity
145.37	0
148.262	0.007671
151.155	0.842382
154.048	0.708329
156.94	0.042114
159.833	0.901279
162.726	0.643559
165.619	0.30263
168.511	0.398848
171.404	0.700018
174.297	0.431734
177.189	0.535725
180.082	0.562516
182.975	0.876439
185.868	0.623399
188.76	0.751583
191.653	0.160473
194.546	0.162703
197.438	0.047316
200.331	0.585711
203.224	0.550647
206.117	0.158339
209.009	0.384498
211.902	0.299786
214.795	0.889647
217.687	0.726151
220.58	0.895624
223.473	1.52657
226.365	0.514784
229.258	1.12868
232.151	1.10086
235.043	1.38551
237.936	1.52151
240.829	1.74968
243.722	1.92341
246.614	1.46433
249.507	0.971385
252.4	1.05587
255.292	0.345595
258.185	0.361044
261.078	0.460972
263.971	0.262874
266.863	0.047218
269.756	0.269003
272.649	0.621828
275.541	0.077409
278.434	0.20503
281.327	0.475858
284.219	0.463497
287.112	0.330552
290.005	0.116098
292.897	0.701359
295.79	0.442986
298.683	0.204152
301.576	0.279714
304.468	0.325438
307.361	0.529546
310.254	0.204569
313.146	0.822624
316.039	0.830606
318.932	0.577255
321.825	0.362929
324.717	0.48853
327.61	0.074562
330.503	0.359001
333.395	0.590345
336.288	0.493279
339.181	0.299679
342.074	0.248356
344.966	0.024098
347.859	0.418276
350.752	0.571475
353.644	0.439715
356.537	0.286465
359.43	0.329726
362.322	0.266432
365.215	0.035224
368.108	0.830062
371	0.477813
373.893	0.678565
376.786	0.52671
379.679	0.334396
382.571	0.190982
385.464	0.004041
388.357	0.189334
391.249	0.106426
394.142	0.671839
397.035	0.508741
399.928	0.365489
402.82	0.456794
405.713	0.071646
408.606	0.130152
411.498	0.662812
414.391	0.074219
417.284	0.273275
420.176	0.374112
423.069	0.379378
425.962	0.459588
428.854	0.441207
431.747	0.425027
434.64	0.262328
437.533	0.006393
440.425	0.535957
443.318	0.20475
446.211	0.513515
449.103	0.805692
451.996	0.121509
454.889	0.483011
457.781	0.364324
460.674	0.649177
463.567	0.56358
466.46	0.957981
469.352	0.582335
472.245	0.374102
475.138	0.311542
478.031	0.036497
480.923	0.391307
483.816	0.220904
486.709	0.686683
489.601	0.143845
492.494	0.040044
495.387	0.203631
498.279	0.006253
501.172	0.220296
504.065	0.492227
506.957	0.417749
509.85	0.392769
512.743	0.654327
515.636	0.603202
518.528	0.129909
521.421	0.531195
524.314	0.759168
527.206	0.465072
530.099	0.447546
532.992	0.734633
535.885	0.371712
538.777	0.62827
541.67	0.674194
544.563	1.00376
547.455	1.13339
550.348	1.22603
553.241	1.46599
556.133	0.650423
559.026	0.843133
561.919	0.588548
564.812	0.45527
567.704	0.80814
570.597	0.436039
573.49	0.69057
576.382	0.492537
579.275	0.246572
582.168	0.53932
585.06	0.089824
587.953	0.374493
590.846	0.808081
593.739	0.762602
596.631	0.711963
599.524	0.456583
602.417	0.510081
605.309	0.147891
608.202	0.583983
611.095	0.6311
613.987	0.659464
616.88	0.705017
619.773	0.465024
622.665	0.025605
625.558	0.312547
628.451	0.243509
631.344	0.831467
634.236	0.413881
637.129	0.2326
640.022	0.270411
642.914	0.256142
645.807	0.4073
648.7	0.27209
651.593	0.233171
654.485	0.534616
657.378	0.409452
660.271	0.234994
663.163	0.294244
666.056	0.031526
668.949	0.09346
671.841	0.048159
674.734	0.148339
677.627	0.088374
680.52	0.239109
683.412	0.131362
686.305	0.281847
689.198	0.209847
692.09	0.318514
694.983	0.339982
697.876	0.203255
700.769	0.522545
703.661	0.601243
706.554	0.542735
709.447	0.310886
712.339	0.95572
715.232	0.635877
718.125	0.327888
721.017	0.745057
723.91	0.451041
726.803	0.587183
729.696	0.226823
732.588	0.29388
735.481	0.7328
738.374	0.58753
741.266	0.044344
744.159	0.61594
747.052	0.32778
749.944	0.121985
752.837	0.631135
755.73	0.317874
758.623	0.673826
761.515	0.137398
764.408	0.212383
767.301	0.4717
770.193	0.237863
773.086	0.069861
775.979	0.473997
778.871	0.16185
781.764	0.220283
784.657	0.77461
787.55	0.077821
790.442	0.41858
793.335	0.095943
796.228	0.072483
799.12	0.336591
802.013	0.372771
804.906	0.021728
807.798	0.440878
810.691	0.478628
813.584	0.396534
816.477	0.035667
819.369	0.172857
822.262	0.618628
825.155	0.836903
828.047	0.35041
830.94	0.107446
833.833	0.69705
836.726	0.755905
839.618	0.810531
842.511	0.966966
845.404	1.06729
848.296	0.960663
851.189	1.2046
854.082	1.09672
856.974	1.04542
859.867	1.20173
862.76	1.13155
865.653	1.15449
868.545	1.3401
871.438	0.739914
874.331	1.1339
877.223	0.975167
880.116	0.806942
883.009	0.846585
885.901	0.749696
888.794	0.578254
891.687	0.568977
894.58	1.01137
897.472	1.08679
900.365	0.549127
903.258	0.761091
906.15	0.618811
909.043	0.372398
911.936	0.487644
914.828	0.1195
917.721	0.008922
920.614	0.296518
923.506	0.3642
926.399	0.274779
929.292	0.435261
932.185	0.244166
935.077	0.044934
937.97	0.477042
940.863	0.286298
943.755	0.439709
946.648	0.012504
949.541	0.124787
952.434	0.093014
955.326	0.252543
958.219	0.313167
961.112	0.055937
964.004	0.079627
966.897	0.193417
969.79	0.217321
972.683	0.21002
975.575	0.005355
978.468	0.405786
981.361	0.206571
984.253	0.193326
987.146	0.359995
990.039	0.410666
992.931	0.100474
995.824	0.518642
998.717	0.582671
1001.61	0.432862
1004.5	0.723117
1007.39	0.117709
1010.29	0.211496
1013.18	0.390246
1016.07	0.339505
1018.97	0.348775
1021.86	0.543912
1024.75	0.637595
1027.64	0.378755
1030.54	0.487391
1033.43	0.87625
1036.32	0.51549
1039.21	0.926653
1042.11	0.741018
1045	0.987695
1047.89	0.463509
1050.79	0.859145
1053.68	0.995978
1056.57	1.18485
1059.46	1.302
1062.36	0.310937
1065.25	0.85757
1068.14	0.883493
1071.03	1.08221
1073.93	1.24813
1076.82	1.12977
1079.71	0.742085
1082.61	0.991882
1085.5	1.03958
1088.39	0.930787
1091.28	0.981609
1094.18	1.32217
1097.07	1.03934
1099.96	0.393403
1102.85	1.08532
1105.75	0.416344
1108.64	0.016428
1111.53	0.414926
1114.42	0.552816
1117.32	0.301609
1120.21	0.726231
1123.1	0.136999
1126	0.38328
1128.89	0.716084
1131.78	0.573836
1134.67	0.362858
1137.57	0.261753
1140.46	0.577514
1143.35	0.200602
1146.24	0.251882
1149.14	0.288218
1152.03	0.027756
1154.92	0.220774
1157.82	0.163812
1160.71	0.007355
1163.6	0.307194
1166.49	0.292762
1169.39	0.395094
1172.28	0.404396
1175.17	0.481227
1178.06	0.196074
1180.96	0.632091
1183.85	0.132816
1186.74	0.448739
1189.63	0.281583
1192.53	0.026206
1195.42	0.365299
1198.31	0.452187
1201.21	0.255732
1204.1	0.222598
1206.99	0.220303
1209.88	0.352511
1212.78	0.225267
1215.67	0.31001
1218.56	0.04402
1221.45	0.186357
1224.35	0.555792
1227.24	0.561917
1230.13	0.018298
1233.03	0.033626
1235.92	0.777542
1238.81	0.358958
1241.7	0.60826
1244.6	0.188103
1247.49	0.576818
1250.38	0.593904
1253.28	0.478393
1256.17	0.422905
1259.06	0.493711
1261.95	0.390803
1264.85	0.521457
1267.74	0.367568
1270.63	0.407502
1273.52	0.393008
1276.42	0.194929
1279.31	0.485668
1282.2	0.441663
1285.09	0.431782
