Measurement: Raman, 532 nm, unoriented, Raman Data Processed
Mineral: Bunsenite
Rruff sample: R080121
Ideal chemistry: Ni^2+^O
Locality: Johanngeorgenstadt, Saxony, Germany
Source: William W. Pinch
Description: Dark green octahedra
Measured chemistry: Ni_1.00_O
Raman shift (cm-1)	intensity
145.487	0
148.862	0.270515
152.237	1.77995
155.612	2.22991
158.986	0.039673
162.361	1.53152
165.736	0.417343
169.111	1.1869
172.486	1.6721
175.86	1.30221
179.235	1.47856
182.61	1.66213
185.985	2.592
189.36	1.81421
192.734	4.11541
196.109	4.21473
199.484	6.67277
202.859	8.94983
206.234	12.2903
209.608	12.2195
212.983	11.6414
216.358	11.9728
219.733	13.1818
223.108	11.1271
226.483	11.1151
229.857	8.98586
233.232	7.84852
236.607	7.41183
239.982	5.92536
243.357	4.86169
246.732	3.15793
250.106	1.99807
253.481	0.300339
256.856	0.020199
260.231	0.338753
263.606	0.682423
266.98	1.49113
270.355	1.05534
273.73	0.625401
277.105	0.79818
280.48	0.714897
283.854	0.911629
287.229	1.09882
290.604	1.26986
293.979	1.09452
297.354	0.435188
300.729	1.1548
304.103	1.04161
307.478	1.02395
310.853	1.08913
314.228	1.14338
317.603	0.985649
320.978	0.373417
324.352	0.7519
327.727	0.265232
331.102	1.52465
334.477	0.678154
337.852	0.811066
341.226	1.46572
344.601	1.49495
347.976	2.01487
351.351	2.99847
354.726	2.64959
358.1	2.35939
361.475	4.40601
364.85	4.36205
368.225	5.31933
371.6	5.79557
374.974	6.71575
378.349	6.70203
381.724	7.08669
385.099	8.06775
388.474	8.50552
391.849	8.88534
395.223	9.48138
398.598	9.47718
401.973	9.57967
405.348	10.1164
408.723	9.79189
412.098	9.68519
415.472	9.16157
418.847	8.1489
422.222	5.03566
425.597	4.28324
428.972	4.12302
432.346	3.65479
435.721	1.93751
439.096	1.5649
442.471	0.809341
445.846	0.68808
449.221	0.726082
452.595	1.52668
455.97	0.983383
459.345	0.652397
462.72	0.218552
466.095	0.043633
469.469	1.10928
472.844	2.01435
476.219	4.42728
479.594	6.05962
482.969	7.98281
486.344	12.0212
489.718	13.922
493.093	17.6213
496.468	20.6086
499.843	25.3315
503.218	30.4697
506.592	33.7578
509.967	37.5573
513.342	41.1876
516.717	44.8235
520.092	48.5101
523.466	53.6589
526.841	57.7816
530.216	62.2371
533.591	66.358
536.966	68.5897
540.341	70.2867
543.715	70.1271
547.09	65.8596
550.465	62.3785
553.84	56.5023
557.215	49.5124
560.59	42.117
563.964	35.183
567.339	29.8206
570.714	25.4098
574.089	22.4385
577.464	19.6701
580.838	16.643
584.213	13.6282
587.588	12.5581
590.963	10.5672
594.338	9.49213
597.712	7.74466
601.087	8.18365
604.462	6.39121
607.837	6.52763
611.212	6.11526
614.587	6.17298
617.961	4.10161
621.336	2.78146
624.711	1.71816
628.086	1.0357
631.461	0.113449
634.835	0.536373
638.21	0.064541
641.585	0.698505
644.96	0.938797
648.335	1.28173
651.71	0.157612
655.084	0.88979
658.459	1.13451
661.834	0.350765
665.209	0.318802
668.584	0.443691
671.958	0.77739
675.333	2.24744
678.708	2.37819
682.083	3.6946
685.458	6.00695
688.832	9.91716
692.207	14.5278
695.582	19.4842
698.957	26.6997
702.332	32.3336
705.707	38.8154
709.081	41.0977
712.456	45.3954
715.831	46.5102
719.206	47.9001
722.581	49.0525
725.955	47.5281
729.33	48.0331
732.705	44.9098
736.08	44.4438
739.455	42.7387
742.83	40.9274
746.204	36.307
749.579	32.5416
752.954	29.6671
756.329	25.8677
759.704	23.8976
763.078	21.3644
766.453	19.291
769.828	18.3482
773.203	15.7145
776.578	14.6299
779.952	14.1415
783.327	11.4798
786.702	10.2653
790.077	9.89784
793.452	8.05937
796.827	6.35356
800.201	4.7862
803.576	4.07271
806.951	3.24687
810.326	3.06486
813.701	2.30969
817.076	1.2033
820.45	0.354362
823.825	0.486107
827.2	0.379852
830.575	0.649471
833.95	0.344456
837.324	0.12785
840.699	0.37545
844.074	0.818233
847.449	0.003357
850.824	0.393356
854.198	0.875408
857.573	1.91629
860.948	2.3176
864.323	3.36033
867.698	5.2458
871.073	6.88012
874.447	9.53789
877.822	12.5574
881.197	15.6844
884.572	21.3806
887.947	25.1085
891.322	30.1251
894.696	33.7368
898.071	34.655
901.446	36.0828
904.821	35.1481
908.196	32.1238
911.57	30.3985
914.945	28.9698
918.32	27.4565
921.695	25.5077
925.07	23.3745
928.444	20.5768
931.819	18.0902
935.194	15.0888
938.569	13.2981
941.944	8.1187
945.318	6.52903
948.693	5.45115
952.068	3.02469
955.443	1.4826
958.818	1.36339
962.193	0.735626
965.567	0.152496
968.942	0.775848
972.317	2.66621
975.692	2.12192
979.067	0.170792
982.442	1.97186
985.816	1.43462
989.191	0.480927
992.566	0.04232
995.941	0.739426
999.316	1.44859
1002.69	1.79382
1006.07	2.38673
1009.44	2.96199
1012.82	4.63954
1016.19	4.97719
1019.57	6.60228
1022.94	8.48743
1026.31	10.2129
1029.69	12.6957
1033.06	12.5389
1036.44	15.8319
1039.81	18.8548
1043.19	22.5817
1046.56	25.9172
1049.94	29.1605
1053.31	33.6512
1056.69	36.5705
1060.06	40.7729
1063.44	43.4012
1066.81	47.8298
1070.19	50.3038
1073.56	51.5001
1076.94	55.2784
1080.31	56.0885
1083.69	57.4251
1087.06	54.2078
1090.44	54.9385
1093.81	50.5127
1097.18	50.6337
1100.56	47.7818
1103.93	47.262
1107.31	42.1007
1110.68	38.2726
1114.06	36.8521
1117.43	34.8265
1120.81	32.2647
1124.18	31.464
1127.56	30.3673
1130.93	28.254
1134.31	27.42
1137.68	25.2019
1141.06	22.3845
1144.43	21.4935
1147.81	18.5009
1151.18	16.0561
1154.56	13.4478
1157.93	11.6221
1161.31	11.7379
1164.68	10.8327
1168.06	9.41243
1171.43	7.94669
1174.81	7.39174
1178.18	5.67734
1181.56	4.76125
1184.93	2.87009
1188.31	2.82094
1191.68	1.39458
1195.06	0.000885
1198.43	0.954636
1201.81	1.22665
1205.18	1.69903
1208.55	3.24297
1211.93	1.74801
1215.3	1.30937
1218.68	2.03287
1222.05	0.368225
1225.43	0.105515
1228.8	2.34778
1232.18	2.62032
1235.55	3.94074
1238.93	5.29127
1242.3	6.39973
1245.68	7.72633
1249.05	10.1775
1252.43	13.18
1255.8	14.754
1259.18	15.1004
1262.55	14.9837
1265.93	13.5899
1269.3	12.6316
1272.68	10.7161
1276.05	11.1131
1279.42	8.93289
1282.8	6.83953
1286.17	6.86923
1289.55	4.49284
1292.92	4.03505
1296.3	2.01341
1299.67	1.09188
1303.05	0.042633
