Measurement: Raman, 780 nm, unoriented, Raman Data Processed
Mineral: Burbankite
Rruff sample: R110199
Ideal chemistry: (Na,Ca)_3_(Sr,Ba,Ce)_3_(CO_3_)_5_
Locality: Poudrette quarry, Mont Saint-Hilaire, Quebec, Canada
Source: Donald Doell
Description: Tufts of white lathlike crystals
Raman shift (cm-1)	intensity
202.008	2905.01
204.901	3182.55
207.794	3461.29
210.686	3791.05
213.579	4142.4
216.472	4437.85
219.364	4825.46
222.257	5165.77
225.15	5491.38
228.042	5738.64
230.935	6101.22
233.828	6269.64
236.721	6438.55
239.613	6708.41
242.506	6912.48
245.399	7138.35
248.291	7384.57
251.184	7755.2
254.077	8116.56
256.969	8551.65
259.862	9022.5
262.755	9548.08
265.648	10098.7
268.54	10583.8
271.433	11015.5
274.326	11255.8
277.218	11349.9
280.111	11349.7
283.004	11282.8
285.897	11133.4
288.789	10992.5
291.682	10783.7
294.575	10580.3
297.467	10278.5
300.36	10008.4
303.253	9816.52
306.145	9684.13
309.038	9648.76
311.931	9602.58
314.824	9753.08
317.716	10021.9
320.609	10347.2
323.502	10736.9
326.394	11079.9
329.287	11425.5
332.18	11679
335.072	11938.7
337.965	12236.2
340.858	12394.9
343.75	12374.8
346.643	12274.9
349.536	11951.4
352.429	11530.6
355.321	11068.2
358.214	10623.8
361.107	10049.7
364	9486.89
366.892	9025.81
369.785	8594.78
372.678	8300.47
375.57	7943.46
378.463	7685.27
381.356	7516.82
384.248	7282.62
387.141	7185.82
390.034	7038.2
392.926	6933.79
395.819	6868.02
398.712	6804.75
401.605	6729.39
404.497	6642.96
407.39	6505.09
410.283	6329.03
413.175	6203.62
416.068	6050.94
418.961	5831.43
421.853	5642.85
424.746	5457.09
427.639	5281.16
430.532	5088.08
433.424	4911.17
436.317	4695.42
439.21	4571.36
442.102	4446.51
444.995	4311.47
447.888	4152.6
450.781	4077.55
453.673	3951.8
456.566	3887.24
459.459	3780.71
462.351	3726
465.244	3569.26
468.137	3521.27
471.029	3421.4
473.922	3374.35
476.815	3275.09
479.707	3140.03
482.6	3107.82
485.493	3012.42
488.386	2880.98
491.278	2834.99
494.171	2732.88
497.064	2647.22
499.956	2607.22
502.849	2504.86
505.742	2457.4
508.635	2432.21
511.527	2361.43
514.42	2307.23
517.313	2283.86
520.205	2250.7
523.098	2206.61
525.991	2180.9
528.883	2143.32
531.776	2135
534.669	2141.81
537.562	2101.91
540.454	2130.01
543.347	2150.29
546.24	2144.49
549.132	2166.42
552.025	2187.75
554.918	2213.74
557.81	2263.26
560.703	2287.56
563.596	2365.43
566.489	2416.37
569.381	2512.18
572.274	2582.97
575.167	2673.54
578.059	2769.96
580.952	2851.19
583.845	2917.57
586.737	3043.39
589.63	3083.75
592.523	3152.61
595.415	3156.7
598.308	3203.48
601.201	3184.63
604.094	3174.51
606.986	3189.41
609.879	3169.89
612.772	3091.73
615.664	3051.66
618.557	3024.06
621.45	3024.72
624.342	3004.21
627.235	2979.88
630.128	2968.97
633.021	3019.7
635.913	3037.59
638.806	3116.83
641.699	3146.69
644.591	3155.29
647.484	3195.32
650.377	3111.46
653.269	3163.01
656.162	3082
659.055	3045.4
661.948	2947.42
664.84	2832.83
667.733	2754.45
670.626	2619.1
673.518	2518.28
676.411	2430.65
679.304	2323.83
682.197	2202.74
685.089	2090.56
687.982	2013.06
690.875	1960.79
693.767	1855.75
696.66	1772.39
699.553	1728.96
702.445	1635.4
705.338	1535.03
708.231	1471.34
711.124	1438.17
714.016	1362.14
716.909	1312.5
719.802	1262.82
722.694	1184.87
725.587	1116.65
728.48	1083.65
731.372	1019.7
734.265	990.18
737.158	942.54
740.051	903.796
742.943	853.685
745.836	837.687
748.729	798.956
751.621	783.679
754.514	767.937
757.407	719.154
760.299	709.707
763.192	674.16
766.085	663.891
768.977	651.766
771.87	614.797
774.763	615.144
777.656	589.077
780.548	599.672
783.441	569.047
786.334	564.436
789.226	546.253
792.119	560.688
795.012	534.059
797.904	530.535
800.797	533.468
803.69	530.484
806.583	514.197
809.475	513.941
812.368	498.158
815.261	482.549
818.153	493.411
821.046	483.773
823.939	485.761
826.832	455.735
829.724	467.777
832.617	458.553
835.51	471.818
838.402	459.411
841.295	451.185
844.188	440.21
847.08	451.115
849.973	430.147
852.866	446.103
855.759	425.991
858.651	427.89
861.544	423.787
864.437	419.304
867.329	418.904
870.222	419.848
873.115	416.919
876.007	412.225
878.9	426.54
881.793	418.833
884.686	423.774
887.578	418.154
890.471	423.554
893.364	420.084
896.256	419.805
899.149	423.649
902.042	410.325
904.934	422.614
907.827	412.391
910.72	421.974
913.612	442.602
916.505	445.749
919.398	431.877
922.291	445.986
925.183	451.769
928.076	463.408
930.969	472.06
933.861	476.513
936.754	497.672
939.647	512.257
942.539	525.445
945.432	526.856
948.325	525.008
951.218	542.475
954.11	572.978
957.003	571.302
959.896	607.355
962.788	616.115
965.681	616.158
968.574	664.137
971.466	665
974.359	686.511
977.252	725.269
980.145	721.166
983.037	761.601
985.93	767.103
988.823	794.7
991.715	844.779
994.608	876.434
997.501	916.612
1000.39	947.548
1003.29	994.634
1006.18	1019.96
1009.07	1050.3
1011.96	1120.49
1014.86	1134.23
1017.75	1176.86
1020.64	1227.48
1023.53	1278.3
1026.43	1324.96
1029.32	1374.02
1032.21	1419.31
1035.11	1490.18
1038	1532.82
1040.89	1588.46
1043.78	1675.22
1046.68	1724.68
1049.57	1796.84
1052.46	1881.37
1055.36	1985.01
1058.25	2057.26
1061.14	2119.56
1064.03	2206.61
1066.93	2317.71
1069.82	2417.3
1072.71	2528.09
1075.6	2589.53
1078.5	2699.55
1081.39	2800.2
1084.28	2894.01
1087.17	2987.69
1090.07	3123.21
1092.96	3253.14
1095.85	3381.78
1098.74	3481.9
1101.64	3628.19
1104.53	3856.56
1107.42	3976.16
1110.32	4111.25
1113.21	4322.02
1116.1	4383.31
1118.99	4560.74
1121.89	4720.87
1124.78	4978.18
1127.67	5145.26
1130.57	5297.28
1133.46	5522.37
1136.35	5669.07
1139.24	5827.94
1142.14	5967.44
1145.03	6203.72
1147.92	6420.98
1150.81	6677.67
1153.71	6827.73
1156.6	7036.13
1159.49	7297.67
1162.38	7582.76
1165.28	7738.11
1168.17	8004.62
1171.06	8277.42
1173.96	8476.82
1176.85	8851.42
1179.74	9020.1
1182.63	9299.67
1185.53	9664.09
1188.42	9976.63
1191.31	10414.4
1194.2	10792.2
1197.1	11122.6
1199.99	11575.8
1202.88	12091.9
1205.78	12629.5
1208.67	13173.6
1211.56	13768.1
1214.45	14512.8
1217.35	15267.1
1220.24	16023.4
1223.13	17072.1
1226.02	18154.8
1228.92	19437.7
1231.81	20831.9
1234.7	22506.6
1237.6	24349.4
1240.49	26546
1243.38	29122.8
1246.27	31974
1249.17	35464.9
1252.06	39415.8
1254.95	43795.4
1257.84	48716.5
1260.74	54034.1
1263.63	59173.4
1266.52	64071.9
1269.41	68234.1
1272.31	71283.1
1275.2	73103.7
1278.09	74001.3
1280.98	73892.9
1283.88	74268.6
