Measurement: Raman, 780 nm, unoriented, Raman Data Processed
Mineral: Burbankite
Rruff sample: R120073
Ideal chemistry: (Na,Ca)_3_(Sr,Ba,Ce^3+^)_3_(CO_3_)_5_
Locality: Mont Saint-Hilaire, Rouville RCM, Montérégie, Québec, Canada
Source: Donald Doell
Description: Prismatic yellow-orange crystals embedded in microcline. Color is dependent upon light source.
Measured chemistry: (Na_2.99_K_0.04_)_Σ=3.03_(Sr_0.54_Ca_0.48_Ba_0.18_Ce_0.73_La_0.42_Nd_0.17_Pr_0.07_)_Σ=2.59_(CO_3_)_5_
Raman shift (cm-1)	intensity
94.4962	11524
97.871	11955.9
101.246	11902.1
104.621	12163.5
107.996	12491.7
111.37	12891.4
114.745	13167.4
118.12	13492.8
121.495	13884.6
124.87	14185.5
128.244	14400.2
131.619	14785.3
134.994	15074.7
138.369	15423
141.744	15937.4
145.119	16457.2
148.493	16969.6
151.868	17580.7
155.243	18293.2
158.618	19115.1
161.993	20045.4
165.367	21106.1
168.742	22240.5
172.117	23358
175.492	24848.6
178.867	26609.8
182.242	28306.5
185.616	30374.9
188.991	32642.9
192.366	35281.4
195.741	38270
199.115	41884.7
202.49	45258
205.865	49424.5
209.24	54066.2
212.615	58963.5
215.99	63699.8
219.364	68924.1
222.739	74071.7
226.114	79655.5
229.489	84857.8
232.864	90135.7
236.238	95443
239.613	100844
242.988	106224
246.363	111640
249.738	116971
253.113	121987
256.487	127074
259.862	134494
263.237	143156
266.612	152945
269.987	162756
273.361	171182
276.736	177300
280.111	182088
283.486	185093
286.861	187159
290.236	189298
293.61	188929
296.985	187971
300.36	184983
303.735	181138
307.11	177041
310.485	174179
313.859	172763
317.234	173382
320.609	175707
323.984	180447
327.359	185265
330.733	191574
334.108	198248
337.483	204468
340.858	209757
344.233	213905
347.608	216275
350.982	216383
354.357	213839
357.732	209174
361.107	202692
364.482	195294
367.856	187975
371.231	180507
374.606	172760
377.981	165366
381.356	159054
384.731	154161
388.105	149674
391.48	146354
394.855	143333
398.23	141101
401.605	140132
404.979	138654
408.354	137049
411.729	135880
415.104	134396
418.479	132238
421.853	129788
425.228	126667
428.603	123136
431.978	119414
435.353	115376
438.728	111462
442.102	107387
445.477	103883
448.852	99853
452.227	96558.8
455.602	93368.8
458.976	90888.3
462.351	88174
465.726	85750.3
469.101	83380.2
472.476	81502.6
475.851	79274
479.225	77040.8
482.6	74653.7
485.975	72744.2
489.35	70965.8
492.725	69367.3
496.099	67392.2
499.474	65816.8
502.849	63879
506.224	62206.2
509.599	60902.4
512.973	59571.2
516.348	58410.7
519.723	57200.6
523.098	56401.4
526.473	55629.1
529.848	54579.3
533.222	54292.7
536.597	53859.3
539.972	53612.9
543.347	53659.9
546.722	53773.1
550.096	54155.9
553.471	54486.2
556.846	55166.7
560.221	55447.4
563.596	56559.4
566.971	57510.5
570.345	58771.8
573.72	59633.4
577.095	60833
580.47	62209.5
583.845	63123.7
587.22	64161.7
590.594	64947.3
593.969	65654.5
597.344	66020.1
600.719	66474.9
604.094	66732.3
607.468	66986.5
610.843	67108.9
614.218	67193.3
617.593	67367.1
620.968	67475.5
624.342	68006.2
627.717	68053.8
631.092	68273.5
634.467	68878.3
637.842	69440.8
641.217	70096.3
644.591	70422.1
647.966	71046.2
651.341	71240.4
654.716	70917.5
658.091	70551.1
661.466	69899.3
664.84	68629.2
668.215	67657.9
671.59	66125.8
674.965	64466.6
678.34	62870.1
681.714	61058.3
685.089	59287.2
688.464	57307.2
691.839	55296.5
695.214	53793
698.588	52131.5
701.963	50400.2
705.338	48800.6
708.713	47262.9
712.088	45668.1
715.462	44070
718.837	42412.9
722.212	41126.6
725.587	39684.6
728.962	38278.6
732.337	37216.5
735.711	35691.5
739.086	34376.8
742.461	33139.3
745.836	32092.2
749.211	31105
752.586	29967.1
755.96	28860.7
759.335	28071.2
762.71	26998.3
766.085	26180.5
769.46	25446.1
772.834	24495.9
776.209	23785.6
779.584	23350.1
782.959	22680.5
786.334	22064.1
789.708	21465.1
793.083	21031.5
796.458	20484.1
799.833	20315.5
803.208	19645.1
806.583	19343.5
809.957	19032
813.332	18595.6
816.707	18422.1
820.082	18261.3
823.457	18139.7
826.832	17782.6
830.206	17525.7
833.581	17426
836.956	17200.3
840.331	17162.8
843.706	17075.1
847.08	16874.5
850.455	16881.6
853.83	16756.3
857.205	16748
860.58	16675.2
863.955	16583.5
867.329	16635.9
870.704	16568.5
874.079	16742.3
877.454	16630.2
880.829	16606.7
884.203	16822.3
887.578	16960.8
890.953	16815.8
894.328	17080.5
897.703	17095.6
901.077	17316.8
904.452	17548.2
907.827	17856.8
911.202	17897.2
914.577	18137
917.952	18447.7
921.326	18680
924.701	18820.4
928.076	19265
931.451	19584.7
934.826	19880
938.2	20228.2
941.575	20744.5
944.95	21171.8
948.325	21627.5
951.7	21971.6
955.074	22531
958.449	23219.2
961.824	23726.2
965.199	24251.5
968.574	24982.8
971.949	25997.4
975.323	26865.8
978.698	27966.8
982.073	29107.5
985.448	30340.4
988.823	31931.6
992.197	33012.5
995.572	34569.4
998.947	36003.8
1002.32	37545.1
1005.7	39367.2
1009.07	41068.4
1012.45	43133.2
1015.82	45163.4
1019.2	47455.2
1022.57	49405.4
1025.95	52023.2
1029.32	54659.4
1032.69	57481.7
1036.07	60543.9
1039.44	63633.3
1042.82	66588.1
1046.19	70237.8
1049.57	73922.8
1052.94	77637.5
1056.32	81484.6
1059.69	85773.1
1063.07	90113
1066.44	94565.1
1069.82	99388.7
1073.19	103706
1076.57	108598
1079.94	113502
1083.32	118740
1086.69	123848
1090.07	129390
1093.44	135318
1096.82	141261
1100.19	147841
1103.57	154869
1106.94	162195
1110.32	169851
1113.69	177158
1117.07	185624
1120.44	194253
1123.82	203712
1127.19	212452
1130.57	222832
1133.94	233052
1137.32	243516
1140.69	255086
1144.06	265769
1147.44	278880
1150.81	290948
1154.19	304887
1157.56	319125
1160.94	333888
1164.31	350598
1167.69	368279
1171.06	385042
1174.44	404826
1177.81	424804
1181.19	448576
1184.56	471382
1187.94	498568
1191.31	527748
1194.69	559934
1198.06	596479
1201.44	636821
1204.81	680031
1208.19	728795
1211.56	785075
1214.93	847930
1218.31	920209
1221.68	998401
1225.06	1.08901e+06
1228.43	1.19633e+06
1231.81	1.31536e+06
1235.18	1.4501e+06
1238.56	1.60152e+06
1241.93	1.76774e+06
1245.31	1.95593e+06
1248.68	2.15853e+06
1252.06	2.3786e+06
1255.43	2.59623e+06
1258.81	2.80864e+06
1262.18	3.00545e+06
1265.56	3.16394e+06
1268.93	3.26602e+06
1272.31	3.31162e+06
1275.68	3.30528e+06
1279.06	3.27536e+06
1282.43	3.24139e+06
