Measurement: Raman, 780 nm, unoriented, Raman Data Processed
Mineral: Buttgenbachite
Rruff sample: R090013
Ideal chemistry: Cu^2+^_36_(N^5+^O_3_)_2_Cl_6_(OH)_64_nH_2_O
Locality: Likasi Mine, Jadotville, Shaba, Zaire
Source: William W. Pinch
Description: Deep blue acicular crystals aggregate on matrix
Raman shift (cm-1)	intensity
148.303	0
151.195	1.24311
154.088	2.20286
156.981	1.33709
159.873	1.23816
162.766	2.23086
165.659	0.338646
168.551	2.4572
171.444	1.59061
174.337	3.14373
177.23	1.32916
180.122	2.655
183.015	0.727047
185.908	1.22961
188.8	0.187731
191.693	1.38952
194.586	2.70988
197.478	0.178855
200.371	1.2154
203.264	0.876563
206.156	0.272121
209.049	0.560729
211.942	0.189427
214.835	1.78897
217.727	1.17461
220.62	1.68319
223.513	1.26673
226.405	0.644311
229.298	2.85783
232.191	0.59225
235.083	0.040035
237.976	3.14753
240.869	1.98673
243.762	1.72306
246.654	3.79821
249.547	2.70579
252.44	2.03539
255.332	0.442275
258.225	2.35428
261.118	3.16433
264.01	0.124687
266.903	1.74352
269.796	1.38096
272.689	1.19791
275.581	0.051112
278.474	1.48344
281.367	0.575087
284.259	2.11795
287.152	1.73472
290.045	0.036046
292.938	1.2562
295.83	0.741432
298.723	0.165559
301.616	1.90602
304.508	2.2009
307.401	1.3092
310.294	0.632746
313.186	2.0205
316.079	1.34207
318.972	3.95176
321.865	2.68487
324.757	1.33027
327.65	3.20751
330.543	4.79459
333.435	2.47772
336.328	3.2038
339.221	3.49292
342.113	3.12424
345.006	1.9804
347.899	0.179106
350.791	2.14493
353.684	1.66824
356.577	1.75301
359.469	1.3745
362.362	2.7798
365.255	0.808072
368.148	0.210387
371.04	1.63434
373.933	2.62967
376.826	3.27278
379.718	0.728875
382.611	4.31995
385.504	0.133344
388.397	1.52662
391.289	3.99138
394.182	5.68778
397.075	7.45914
399.967	5.97972
402.86	4.09419
405.753	4.43828
408.645	2.54709
411.538	1.35
414.431	0.6784
417.324	0.912772
420.216	0.011712
423.109	2.25995
426.002	1.79708
428.894	0.502398
431.787	0.255954
434.68	1.15381
437.572	0.983412
440.465	2.65015
443.358	1.8321
446.25	0.382601
449.143	1.71056
452.036	0.491943
454.929	2.50077
457.821	1.23159
460.714	1.27835
463.607	1.52232
466.5	0.703012
469.392	1.24567
472.285	1.97916
475.178	1.55608
478.07	2.10886
480.963	1.60684
483.856	0.968342
486.748	2.37542
489.641	0.349351
492.534	0.339849
495.426	0.947168
498.319	0.175216
501.212	0.976473
504.104	4.01923
506.997	1.91003
509.89	0.81168
512.783	2.44059
515.675	0.061471
518.568	1.64984
521.461	1.17463
524.354	2.157
527.246	3.01565
530.139	1.23473
533.032	1.26887
535.924	0.869416
538.817	0.260777
541.71	0.886006
544.602	0.580544
547.495	1.6998
550.388	0.151192
553.28	1.74932
556.173	2.21272
559.066	3.07124
561.959	0.012973
564.851	1.89593
567.744	1.72564
570.637	1.78298
573.529	1.99647
576.422	2.18314
579.315	2.20832
582.207	2.67422
585.1	2.52199
587.993	2.52972
590.885	2.00699
593.778	0.819423
596.671	2.004
599.564	2.09509
602.456	2.04091
605.349	1.7858
608.242	0.873327
611.134	1.60983
614.027	2.90515
616.92	1.06304
619.812	0.408972
622.705	3.12195
625.598	2.47488
628.491	1.75447
631.383	0.259645
634.276	3.40187
637.169	1.90725
640.061	1.54173
642.954	0.511671
645.847	1.64295
648.74	1.87958
651.632	2.50412
654.525	1.79318
657.418	2.29377
660.31	2.15552
663.203	1.97697
666.096	0.295404
668.988	3.05477
671.881	0.278284
674.774	1.32786
677.667	0.319989
680.559	2.71937
683.452	1.26025
686.345	0.724005
689.237	0.424934
692.13	2.0633
695.023	2.36373
697.915	0.08409
700.808	1.37607
703.701	2.39926
706.593	2.8959
709.486	1.17954
712.379	1.19894
715.272	0.354982
718.164	2.93846
721.057	2.28237
723.95	1.92126
726.842	2.71991
729.735	1.56702
732.628	0.970227
735.52	1.89956
738.413	3.73634
741.306	1.05871
744.199	1.88698
747.091	2.29385
749.984	0.225982
752.877	2.13942
755.769	1.47785
758.662	2.81626
761.555	1.0506
764.447	1.55536
767.34	1.76355
770.233	1.3862
773.126	0.579491
776.018	2.42839
778.911	0.506022
781.804	0.443127
784.696	2.0523
787.589	0.515847
790.482	1.50778
793.375	1.07635
796.267	3.14286
799.16	1.85379
802.053	2.48296
804.945	1.35383
807.838	1.37185
810.731	1.67676
813.623	0.194772
816.516	2.90565
819.409	2.83843
822.302	0.826352
825.194	2.65403
828.087	2.46082
830.98	1.59454
833.872	2.66177
836.765	0.007943
839.658	2.62489
842.55	1.58752
845.443	2.18296
848.336	2.1621
851.229	0.994797
854.121	1.1456
857.014	2.85125
859.907	3.29778
862.799	1.25602
865.692	2.53016
868.585	1.87845
871.477	1.61608
874.37	1.55808
877.263	2.01939
880.155	2.39817
883.048	0.003494
885.941	0.526285
888.834	1.67152
891.726	1.10323
894.619	0.858118
897.512	0.074264
900.404	1.94476
903.297	1.25079
906.19	1.19237
909.082	1.61269
911.975	0.949852
914.868	0.626456
917.761	1.08931
920.653	1.44238
923.546	2.7659
926.439	0.007735
929.331	2.14863
932.224	2.03606
935.117	1.15433
938.01	2.50039
940.902	1.37318
943.795	1.82478
946.688	0.801884
949.58	1.99959
952.473	3.03874
955.366	1.38258
958.258	0.355255
961.151	1.11647
964.044	1.39712
966.937	2.11179
969.829	0.256328
972.722	0.825957
975.615	1.69133
978.507	0.601622
981.4	3.5886
984.293	5.00984
987.185	2.55067
990.078	2.03565
992.971	2.7407
995.864	0.124414
998.756	2.61126
1001.65	0.246346
1004.54	1.94182
1007.43	0.306125
1010.33	1.97329
1013.22	1.95996
1016.11	0.534543
1019	2.23052
1021.9	0.898092
1024.79	0.03363
1027.68	0.680474
1030.58	0.014239
1033.47	1.26396
1036.36	1.45966
1039.25	0.649423
1042.15	0.919306
1045.04	0.900916
1047.93	1.57803
1050.83	1.21261
1053.72	3.2109
1056.61	1.84522
1059.5	2.68369
1062.4	1.14762
1065.29	1.74812
1068.18	0.499406
1071.07	2.67374
1073.97	1.54081
1076.86	0.254351
1079.75	2.0745
1082.64	2.95719
1085.54	2.17397
1088.43	3.38928
1091.32	0.834312
1094.21	0.650971
1097.11	3.03384
1100	1.1809
1102.89	2.11405
1105.79	2.09891
1108.68	0.477203
1111.57	1.43487
1114.46	1.43721
1117.36	1.5978
1120.25	1.65427
1123.14	1.60821
1126.04	1.2421
1128.93	1.82026
1131.82	2.50702
1134.71	1.67399
1137.61	3.66058
1140.5	1.14327
1143.39	0.208858
1146.28	0.270958
1149.18	2.42142
1152.07	3.47694
1154.96	1.47778
1157.86	2.20365
1160.75	0.699913
1163.64	1.50046
1166.53	0.773818
1169.42	3.08987
1172.32	0.280901
1175.21	1.88139
1178.1	2.12915
1181	0.446809
1183.89	2.64152
1186.78	2.07606
1189.67	1.28087
1192.57	1.60841
1195.46	0.879971
1198.35	1.55756
1201.24	3.9914
1204.14	1.33731
1207.03	0.358014
1209.92	1.49876
1212.82	2.08629
1215.71	0.55165
1218.6	1.79905
1221.49	0.395947
1224.39	2.18838
1227.28	3.20438
1230.17	3.2846
1233.07	3.71977
1235.96	0.569731
1238.85	0.895449
1241.74	0.683156
1244.64	2.18506
1247.53	1.22092
1250.42	1.00558
1253.31	2.66832
1256.21	2.93179
1259.1	2.97542
1261.99	0.171529
1264.88	0.746026
1267.78	2.58615
1270.67	0.886283
1273.56	1.23535
1276.45	1.7548
1279.35	0.551701
1282.24	0.30993
1285.13	1.03978
