Measurement: Raman, 780 nm, unoriented, Raman Data Processed
Mineral: Calaverite
Rruff sample: R070397
Ideal chemistry: AuTe_2_
Locality: Sacarambu, Transylvania, Romania
Source: Michael Scott
Description: Gold metallic massive associated with quartz
Measured chemistry: (Au_0.95_Ag_0.05_)_Î£=1_Te_2.00_
Raman shift (cm-1)	intensity
169.181	0
172.074	54.5017
174.967	58.5061
177.859	22.286
180.752	19.7075
183.645	36.8794
186.538	9.05493
189.43	21.7687
192.323	14.3701
195.216	20.7182
198.108	22.0859
201.001	10.8162
203.894	23.8846
206.786	23.0651
209.679	57.4224
212.572	26.778
215.465	25.2155
218.357	17.202
221.25	29.9625
224.143	16.863
227.035	28.2056
229.928	25.0477
232.821	45.1502
235.714	48.2712
238.606	29.3095
241.499	33.0039
244.392	38.915
247.284	26.2943
250.177	74.6195
253.07	40.8077
255.962	46.6911
258.855	9.0614
261.748	41.2056
264.64	38.782
267.533	57.8946
270.426	41.9681
273.319	17.0032
276.211	35.6137
279.104	48.0309
281.997	30.6991
284.889	39.6833
287.782	4.05646
290.675	22.6032
293.567	61.959
296.46	49.4283
299.353	33.6034
302.246	17.3314
305.138	32.7578
308.031	15.7379
310.924	39.5524
313.816	23.7588
316.709	9.22839
319.602	50.5478
322.495	39.8478
325.387	43.7815
328.28	41.6698
331.173	41.062
334.065	42.3476
336.958	23.9388
339.851	25.9051
342.743	33.7469
345.636	25.1443
348.529	38.8718
351.421	25.7283
354.314	28.9937
357.207	49.0872
360.1	35.5279
362.992	37.5966
365.885	33.3644
368.778	50.035
371.67	2.92456
374.563	27.4544
377.456	34.1756
380.349	11.2745
383.241	42.2822
386.134	25.5914
389.027	11.1287
391.919	16.478
394.812	31.846
397.705	28.8186
400.597	16.0768
403.49	27.8127
406.383	30.4443
409.276	46.7823
412.168	24.693
415.061	27.2989
417.954	21.8269
420.846	27.5569
423.739	32.9016
426.632	35.6448
429.524	21.3197
432.417	30.456
435.31	10.5991
438.202	16.2522
441.095	25.5548
443.988	10.4248
446.881	16.4269
449.773	15.4234
452.666	55.8604
455.559	7.4169
458.451	16.738
461.344	33.1476
464.237	23.3551
467.13	22.8616
470.022	14.5013
472.915	20.8599
475.808	21.2664
478.7	17.9421
481.593	32.1475
484.486	39.6719
487.378	23.2355
490.271	41.6541
493.164	44.2659
496.057	23.343
498.949	27.8836
501.842	46.181
504.735	11.2462
507.627	13.5288
510.52	34.3298
513.413	26.3542
516.305	21.1787
519.198	36.266
522.091	31.16
524.984	10.4577
527.876	22.7785
530.769	16.5114
533.662	12.8678
536.554	32.1219
539.447	10.4299
542.34	6.9455
545.232	9.56033
548.125	10.5362
551.018	16.0886
553.91	15.7819
556.803	36.73
559.696	30.858
562.589	26.8934
565.481	19.9971
568.374	17.1026
571.267	23
574.159	15.7111
577.052	7.22467
579.945	5.72827
582.837	0.255676
585.73	24.3231
588.623	18.1384
591.516	12.9558
594.408	38.658
597.301	6.24411
600.194	8.48206
603.086	8.8877
605.979	36.2698
608.872	31.4928
611.764	23.8
614.657	32.4663
617.55	6.21167
620.443	34.7403
623.335	37.511
626.228	21.2515
629.121	33.3243
632.013	33.5169
634.906	28.1616
637.799	29.2298
640.692	54.5842
643.584	45.4248
646.477	16.131
649.37	17.7464
652.262	19.8606
655.155	28.1586
658.048	25.2545
660.94	8.81073
663.833	39.9848
666.726	41.8651
669.619	37.7523
672.511	17.8797
675.404	22.6148
678.297	11.8341
681.189	27.3283
684.082	27.5792
686.975	25.3132
689.867	14.2484
692.76	20.917
695.653	6.81284
698.545	12.7825
701.438	0.352173
704.331	22.0008
707.224	19.4662
710.116	21.169
713.009	38.6964
715.902	1.28409
718.794	51.8275
721.687	31.5238
724.58	27.9813
727.472	21.893
730.365	18.4375
733.258	13.3996
736.151	22.1385
739.043	18.3918
741.936	8.19397
744.829	18.6223
747.721	23.1938
750.614	36.56
753.507	17.7084
756.399	19.0165
759.292	40.1379
762.185	29.5591
765.078	24.9839
767.97	31.5934
770.863	47.0445
773.756	7.52231
776.648	27.0663
779.541	18.6123
782.434	46.6551
785.327	6.93094
788.219	27.4019
791.112	11.6616
794.005	31.3055
796.897	25.3983
799.79	8.74042
802.683	35.0305
805.575	3.77799
808.468	33.2616
811.361	28.9542
814.254	3.21866
817.146	20.2137
820.039	24.6917
822.932	31.1866
825.824	19.4476
828.717	10.2913
831.61	26.5111
834.502	40.4354
837.395	13.211
840.288	7.19992
843.181	12.5984
846.073	28.714
848.966	1.97513
851.859	31.0199
854.751	16.0383
857.644	20.2077
860.537	25.7482
863.429	34.8167
866.322	2.4733
869.215	22.7986
872.107	24.1207
875	27.2492
877.893	9.40546
880.786	20.0216
883.678	20.9301
886.571	31.3133
889.464	23.5103
892.356	41.7531
895.249	22.9973
898.142	3.75867
901.034	44.6429
903.927	31.4715
906.82	33.0761
909.713	15.5326
912.605	17.1208
915.498	17.2971
918.391	0.091461
921.283	30.8791
924.176	5.35626
927.069	13.9203
929.962	25.5665
932.854	21.9573
935.747	28.866
938.64	21.9644
941.532	11.1104
944.425	15.2473
947.318	14.7967
950.21	12.3196
953.103	9.97595
955.996	15.8482
958.889	18.8024
961.781	21.0552
964.674	10.7527
967.567	37.9927
970.459	25.674
973.352	1.57352
976.245	17.2115
979.137	7.71161
982.03	37.9826
984.923	41.8706
987.816	0.904053
990.708	7.78824
993.601	45.1506
996.494	24.4033
999.386	18.6074
1002.28	4.74179
1005.17	7.26474
1008.06	32.8221
1010.96	28.9944
1013.85	18.3122
1016.74	9.08783
1019.63	7.83856
1022.53	22.2234
1025.42	35.1724
1028.31	16.809
1031.21	17.8357
1034.1	18.8062
1036.99	19.8944
1039.88	15.4744
1042.78	14.4449
1045.67	30.3672
1048.56	17.8289
1051.45	32.4741
1054.35	20.6222
1057.24	35.6129
1060.13	34.7576
1063.03	37.0696
1065.92	17.2036
1068.81	3.97317
1071.7	9.38037
1074.6	4.08905
1077.49	20.467
1080.38	19.978
1083.28	3.5423
1086.17	41.6049
1089.06	22.2392
1091.95	16.6923
1094.85	20.8792
1097.74	45.5376
1100.63	13.9384
1103.52	12.9835
1106.42	15.1646
1109.31	18.8427
1112.2	2.45752
1115.09	15.4138
1117.99	7.2464
1120.88	16.7918
1123.77	3.38058
1126.66	26.2773
1129.56	7.04294
1132.45	5.74875
1135.34	17.1143
1138.24	9.23239
1141.13	32.7926
1144.02	18.5001
1146.91	10.0316
1149.81	12.0199
1152.7	19.2891
1155.59	21.5703
1158.48	23.9402
1161.38	26.8374
1164.27	27.3364
1167.16	20.435
1170.06	19.2027
1172.95	11.6298
1175.84	7.53766
1178.73	20.3512
1181.63	7.94028
1184.52	24.5229
1187.41	17.4218
1190.3	28.3866
1193.2	36.6403
1196.09	4.2019
1198.98	1.41379
1201.88	1.69318
1204.77	10.1164
1207.66	3.23517
1210.55	6.24979
1213.45	1.85687
1216.34	21.2354
1219.23	16.8607
1222.12	10.1673
1225.02	11.9964
1227.91	29.6923
1230.8	17.8368
1233.69	14.4678
1236.59	25.3787
1239.48	22.7173
1242.37	33.1769
1245.27	35.2661
1248.16	17.7883
1251.05	16.2551
1253.94	37.3542
1256.84	3.33627
1259.73	11.1889
1262.62	20.2335
1265.52	16.1197
1268.41	12.0266
1271.3	5.31583
1274.19	17.8994
1277.09	7.54733
