Measurement: Raman, 532 nm, unoriented, Raman Data Processed
Mineral: Calaverite
Rruff sample: R070397
Ideal chemistry: AuTe_2_
Locality: Sacarambu, Transylvania, Romania
Source: Michael Scott
Description: Gold metallic massive associated with quartz
Measured chemistry: (Au_0.95_Ag_0.05_)_Î£=1_Te_2.00_
Raman shift (cm-1)	intensity
169.911	0
172.803	8.99027
175.696	7.0155
178.589	2.05396
181.482	17.5384
184.374	3.53992
187.267	18.256
190.16	16.4905
193.052	2.99628
195.945	17.1099
198.838	7.89038
201.731	32.6009
204.623	32.5398
207.516	34.1546
210.409	31.6074
213.301	6.91596
216.194	26.3615
219.087	29.514
221.979	11.6645
224.872	36.3577
227.765	22.0141
230.657	0.926117
233.55	17.1796
236.443	24.8244
239.336	20.5723
242.228	26.8944
245.121	29.7574
248.014	21.8465
250.906	45.5617
253.799	51.3869
256.692	41.7937
259.584	45.4925
262.477	27.8103
265.37	5.19562
268.263	21.4876
271.155	2.70923
274.048	37.8433
276.941	1.78659
279.833	35.7543
282.726	13.8358
285.619	12.2315
288.512	0.509796
291.404	23.0706
294.297	4.26941
297.19	25.7599
300.082	7.93253
302.975	24.5319
305.868	17.1687
308.76	31.7752
311.653	31.3712
314.546	18.2321
317.438	27.3722
320.331	10.9121
323.224	26.5599
326.117	32.611
329.009	17.5093
331.902	15.0089
334.795	14.23
337.687	41.321
340.58	48.2139
343.473	15.7945
346.365	29.18
349.258	16.2484
352.151	1.92975
355.044	35.4398
357.936	13.3219
360.829	9.99103
363.722	6.24847
366.614	13.1229
369.507	30.1877
372.4	22.7656
375.293	10.9351
378.185	12.9361
381.078	7.73959
383.971	25.8055
386.863	21.7198
389.756	4.54392
392.649	21.0638
395.541	11.3094
398.434	12.4217
401.327	5.44485
404.219	31.0789
407.112	21.4937
410.005	16.3052
412.898	26.4652
415.79	36.8255
418.683	16.6844
421.576	8.60852
424.469	17.3974
427.361	10.5754
430.254	28.7242
433.147	24.7538
436.039	7.36523
438.932	10.2549
441.825	9.97052
444.717	18.5059
447.61	21.8695
450.503	34.0844
453.396	29.0374
456.288	29.3668
459.181	17.23
462.074	30.085
464.966	23.033
467.859	12.1907
470.752	28.0409
473.644	15.6863
476.537	24.9363
479.43	2.44519
482.322	13.2371
485.215	22.0579
488.108	6.04797
491.001	7.24158
493.893	6.46277
496.786	8.3006
499.679	14.5155
502.571	9.1983
505.464	19.4558
508.357	14.2062
511.25	15.0889
514.142	6.9823
517.035	21.6315
519.928	13.2472
522.82	5.09143
525.713	6.08679
528.606	30.6537
531.498	5.62451
534.391	16.0209
537.284	8.70758
540.177	0.244324
543.069	6.00146
545.962	20.075
548.855	8.27148
551.747	20.0189
554.64	10.0809
557.533	35.2801
560.425	0.035217
563.318	18.7813
566.211	9.05005
569.104	17.5232
571.996	3.57745
574.889	5.09985
577.782	12.7901
580.674	6.71381
583.567	18.1198
586.46	11.3492
589.352	2.31439
592.245	14.2207
595.138	9.63446
598.031	13.059
600.923	15.029
603.816	16.4017
606.709	18.6226
609.601	7.09045
612.494	22.7341
615.387	5.55328
618.279	1.82843
621.172	2.14087
624.065	11.2335
626.958	23.7963
629.85	1.18689
632.743	5.22888
635.636	32.5411
638.528	28.1537
641.421	29.0792
644.314	23.9264
647.207	16.9684
650.099	28.8122
652.992	33.3317
655.885	4.81317
658.777	23.2952
661.67	8.72473
664.563	6.05164
667.455	19.1802
670.348	13.5527
673.241	9.63946
676.134	31.8192
679.026	10.9031
681.919	11.3118
684.812	16.7797
687.704	15.6581
690.597	6.36151
693.49	20.7969
696.382	7.12274
699.275	40.356
702.168	0.550354
705.061	7.83612
707.953	14.8399
710.846	32.4789
713.739	11.7184
716.631	11.9462
719.524	7.117
722.417	19.4784
725.309	21.5304
728.202	35.6033
731.095	27.3459
733.987	16.3705
736.88	10.6957
739.773	3.25623
742.666	14.5026
745.558	1.08313
748.451	31.6282
751.344	23.3302
754.236	32.3991
757.129	3.61914
760.022	31.619
762.915	16.5038
765.807	2.36285
768.7	10.1477
771.593	16.5699
774.485	37.1152
777.378	12.6717
780.271	16.6636
783.163	32.7764
786.056	10.542
788.949	12.8704
791.842	1.14844
794.734	20.2471
797.627	25.3024
800.52	16.0537
803.412	25.2606
806.305	12.8624
809.198	6.13629
812.091	27.0623
814.983	13.6089
817.876	3.59485
820.769	18.0984
823.661	23.7123
826.554	16.2459
829.447	0.552002
832.339	20.2885
835.232	10.0783
838.125	14.9805
841.018	19.2777
843.91	9.87073
846.803	26.6034
849.696	9.65759
852.588	1.84607
855.481	41.3992
858.374	12.0241
861.266	13.9401
864.159	3.50244
867.052	11.6526
869.944	32.8846
872.837	8.80218
875.73	8.77527
878.623	16.8867
881.515	21.1547
884.408	37.7833
887.301	18.3147
890.193	21.8392
893.086	10.7134
895.979	10.1071
898.871	10.6876
901.764	35.9847
904.657	18.8371
907.55	10.1603
910.442	25.0821
913.335	18.1809
916.228	4.24261
919.12	41.5785
922.013	16.5802
924.906	20.3837
927.798	23.1266
930.691	15.4573
933.584	14.8704
936.477	31.5628
939.369	3.5957
942.262	41.2215
945.155	11.9791
948.047	14.7463
950.94	10.7575
953.833	11.6876
956.726	8.43878
959.618	9.17804
962.511	10.3693
965.404	21.5908
968.296	30.5089
971.189	8.10718
974.082	23.6583
976.974	16.6556
979.867	21.2579
982.76	10.5913
985.653	8.9502
988.545	12.1128
991.438	14.6558
994.331	28.1448
997.223	30.0594
1000.12	20.8796
1003.01	14.2651
1005.9	17.5883
1008.79	7.1427
1011.69	27.3321
1014.58	19.6653
1017.47	24.0062
1020.37	15.7736
1023.26	26.8596
1026.15	36.9139
1029.04	20.978
1031.94	26.8112
1034.83	13.8507
1037.72	29.4612
1040.61	28.545
1043.51	29.0055
1046.4	29.254
1049.29	3.08264
1052.18	15.6693
1055.08	23.3253
1057.97	12.1334
1060.86	7.58868
1063.76	30.5884
1066.65	35.9587
1069.54	5.25342
1072.43	20.7714
1075.33	36.532
1078.22	23.1523
1081.11	18.832
1084	42.8076
1086.9	15.0341
1089.79	14.7119
1092.68	28.4205
1095.58	2.47315
1098.47	16.6951
1101.36	6.00781
1104.25	7.78485
1107.15	26.5319
1110.04	41.2111
1112.93	30.4568
1115.82	16.9482
1118.72	30.8209
1121.61	22.4028
1124.5	37.5579
1127.39	40.5123
1130.29	17.257
1133.18	18.114
1136.07	39.8538
1138.97	25.5194
1141.86	20.2855
1144.75	12.1061
1147.64	35.827
1150.54	42.2819
1153.43	23.4392
1156.32	7.42664
1159.21	27.2116
1162.11	20.2058
1165	34.2921
1167.89	31.6899
1170.79	32.3583
1173.68	33.7333
1176.57	40.7193
1179.46	23.3335
1182.36	8.79157
1185.25	29.998
1188.14	8.84979
1191.03	10.9734
1193.93	8.28156
1196.82	22.4301
1199.71	9.08014
1202.61	29.1358
1205.5	19.6967
1208.39	34.325
1211.28	3.76489
1214.18	28.4962
1217.07	10.7753
1219.96	24.184
1222.85	32.8196
1225.75	17.0062
1228.64	13.4149
1231.53	22.5192
1234.42	19.8973
1237.32	12.0167
1240.21	24.6694
1243.1	33.1724
1246	31.4542
1248.89	19.7308
1251.78	30.7838
1254.67	13.6869
1257.57	27.3093
1260.46	2.70551
1263.35	13.5756
1266.24	26.7731
1269.14	27.3066
1272.03	27.8915
1274.92	10.1439
1277.82	38.0104
1280.71	29.694
1283.6	29.8716
1286.49	2.9082
1289.39	10.2614
1292.28	23.5864
1295.17	22.9261
1298.06	18.4388
1300.96	12.714
1303.85	17.6144
