Measurement: Raman, 780 nm, unoriented, Raman Data Processed
Mineral: Calcite
Rruff sample: R050128
Ideal chemistry: CaCO_3_
Locality: Tie Siding, Albany County, Wyoming, USA
Source: Dave Bunk Minerals
Description: Pseudomorph after aragonite, not single crystal. Trace of aragonite still present.
Measured chemistry: Ca_1.00_CO_3_
Raman shift (cm-1)	intensity
115.745	0
119.12	5.95117
122.494	5.36621
125.869	40.1455
129.244	148.691
132.619	383.864
135.994	595.406
139.369	730.227
142.743	1010.94
146.118	1216.33
149.493	1576.23
152.868	1882.77
156.243	1133.62
159.617	424.978
162.992	216.45
166.367	116.215
169.742	117.533
173.117	144.411
176.491	169.731
179.866	239.333
183.241	201.935
186.616	235.834
189.991	305.296
193.365	278.659
196.74	299.867
200.115	363.41
203.49	493.166
206.865	624.423
210.24	371.505
213.614	238.101
216.989	142.506
220.364	50.2363
223.739	26.8457
227.114	10.835
230.488	9.34473
233.863	2.64453
237.238	13.1543
240.613	4.13281
243.988	22.4854
247.363	45.7578
250.737	45.3711
254.112	64.4522
257.487	76.2783
260.862	140.576
264.237	178.712
267.611	210.557
270.986	252.359
274.361	301.396
277.736	342.576
281.111	386.566
284.486	294.371
287.86	153.25
291.235	68.2363
294.61	35.6816
297.985	33.5361
301.36	17.1729
304.735	7.83203
308.109	2.54394
311.484	1.67871
314.859	6.76856
318.234	7.42188
321.609	14.875
324.983	19.7764
328.358	4.51856
331.733	10.04
335.108	13.1465
338.483	24.04
341.858	40.0967
345.232	46.792
348.607	48.7353
351.982	50.4834
355.357	59.5684
358.731	64.0957
362.106	29.3389
365.481	21.6777
368.856	13.8271
372.231	12.1592
375.606	15.543
378.98	27.9746
382.355	8.26367
385.73	1.65234
389.105	9.56152
392.48	4.25391
395.854	7.70996
399.229	30.0234
402.604	41.7891
405.979	56.2412
409.354	70.7197
412.729	86.2246
416.103	94.2256
419.478	98.1816
422.853	103.351
426.228	97.4795
429.603	98.0469
432.978	116.996
436.352	131.738
439.727	125.064
443.102	110.185
446.477	105.447
449.852	78.8096
453.226	65.7837
456.601	50.2022
459.976	57.6997
463.351	47.5518
466.726	37.4219
470.101	29.5205
473.475	36.7353
476.85	39.5083
480.225	23.3428
483.6	40.2344
486.974	18.124
490.349	5.22412
493.724	9.29834
497.099	0.321289
500.474	10.1519
503.849	8.22021
507.223	15.0957
510.598	11.0161
513.973	22.1055
517.348	26.2012
520.723	21.3525
524.097	5.22314
527.472	3.81982
530.847	6.55811
534.222	5.70898
537.597	0.055176
540.972	0.806152
544.346	0.918945
547.721	9.2666
551.096	6.14014
554.471	16.0356
557.846	17.8145
561.221	20.7915
564.595	0.397949
567.97	1.31152
571.345	13.5347
574.72	19.3975
578.095	28.5395
581.469	25.6069
584.844	11.811
588.219	23.8862
591.594	20.2622
594.969	21.4995
598.343	1.09619
601.718	13.4815
605.093	8.90039
608.468	19.2363
611.843	6.2876
615.218	8.45947
618.592	15.9907
621.967	9.26074
625.342	29.2505
628.717	18.7632
632.092	12.2407
635.466	21.1118
638.841	22.707
642.216	17.7949
645.591	11.9482
648.966	8.22168
652.341	8.99902
655.715	1.54346
659.09	15.0625
662.465	16.7539
665.84	3.98291
669.215	18.4692
672.59	2.4419
675.964	13.0649
679.339	13.9766
682.714	16.5786
686.089	52.6875
689.464	88.6909
692.838	147.508
696.213	188.553
699.588	328.68
702.963	362.244
706.338	296.534
709.712	124.436
713.087	118.412
716.462	49.3413
719.837	15.0366
723.212	19.0405
726.587	18.479
729.961	15.5107
733.336	18.3125
736.711	11.4365
740.086	10.1768
743.461	0.539551
746.835	4.35205
750.21	4.85254
753.585	5.18945
756.96	4.16455
760.335	0.452637
763.71	15.8643
767.084	11.5249
770.459	6.72266
773.834	5.30225
777.209	12.6787
780.584	25.8447
783.958	24.3843
787.333	35.4497
790.708	32.8872
794.083	27.1895
797.458	26.3359
800.832	15.3486
804.207	13.0303
807.582	14.8975
810.957	28.6357
814.332	28.4214
817.707	27.4971
821.081	16.4966
824.456	13.3887
827.831	15.9565
831.206	19.6777
834.581	23.0747
837.955	13.7983
841.33	12.7339
844.705	5.79443
848.08	17.4072
851.455	2.81152
854.83	10.0796
858.204	6.05908
861.579	9.1333
864.954	6.14453
868.329	14.7632
871.704	8.04492
875.078	2.64307
878.453	15.4346
881.828	15.0874
885.203	10.8418
888.578	8.21143
891.952	3.36621
895.327	9.26709
898.702	7.30908
902.077	7.73047
905.452	13.9526
908.827	2.50147
912.201	3.92041
915.576	16.4385
918.951	0.343262
922.326	2.21289
925.701	2.8291
929.076	3.86914
932.45	8.35303
935.825	5.59229
939.2	4.13867
942.575	6.61475
945.95	22.1113
949.324	11.0391
952.699	8.54443
956.074	22.7183
959.449	23.6216
962.824	33.9409
966.198	17.1396
969.573	20.7676
972.948	8.78418
976.323	7.06494
979.698	7.02441
983.073	5.41797
986.447	3.68066
989.822	0.055664
993.197	0.43457
996.572	11.1182
999.947	4.19678
1003.32	4.00732
1006.7	5.75781
1010.07	8.65137
1013.45	8.26855
1016.82	13.3286
1020.2	11.3667
1023.57	15.4863
1026.94	10.292
1030.32	13.0645
1033.69	14.27
1037.07	21.3301
1040.44	16.0464
1043.82	15.8066
1047.19	21.2568
1050.57	19.7222
1053.94	24.6611
1057.32	40.708
1060.69	36.4019
1064.07	51.4009
1067.44	55.7188
1070.82	105.671
1074.19	551.819
1077.57	687.148
1080.94	1399.36
1084.32	2846.99
1087.69	1470.12
1091.07	157.377
1094.44	63.7029
1097.82	30.8162
1101.19	25.6457
1104.57	22.8955
1107.94	10.7017
1111.32	2.22022
1114.69	4.0835
1118.07	3.28613
1121.44	2.14966
1124.82	2.59009
1128.19	5.20752
1131.56	7.37085
1134.94	0.500488
1138.31	8.15967
1141.69	18.519
1145.06	17.3789
1148.44	40.708
1151.81	54.4629
1155.19	75.8213
1158.56	109.683
1161.94	134.429
1165.31	202.739
1168.69	261.065
1172.06	359.448
1175.44	463.947
1178.81	556.567
1182.19	641.77
1185.56	666.04
1188.94	625.154
1192.31	513.368
1195.69	409.741
1199.06	321.817
1202.44	251.864
1205.81	200.83
1209.18	167.653
1212.56	123.349
1215.93	108.747
1219.31	85.6196
1222.68	62.3145
1226.06	31.646
1229.43	12.7783
1232.81	28.7178
1236.18	26.3721
1239.56	33.0693
1242.93	7.69873
1246.31	10.6235
1249.68	11.9834
1253.06	20.2974
1256.43	8.2793
1259.81	14.1582
1263.18	68.9971
1266.56	158.879
1269.93	233.753
1273.31	324.396
1276.68	415.948
1280.06	445.955
1283.43	252.979
1286.81	0
