Measurement: Raman, 780 nm, unoriented, Raman Data Processed
Mineral: Calcioburbankite
Rruff sample: R140485
Ideal chemistry: Na_3_(Ca,Ce^3+^,Sr,La)_3_(CO_3_)_5_
Locality: Eboundja, Kribi, South Region, Cameroon
Source: Rock Currier
Description: Pink massive
Measured chemistry: (Na_2.89_K_0.02_)(Ca_1.14_Ce_0.61_La_0.39_Sr_0.23_Nd_0.15_Pr_0.06_)(CO_3_)_5_ ; The dark mineral is analcime.
Raman shift (cm-1)	intensity
87.582	0
90.4747	191.654
93.3674	431.695
96.2601	241.262
99.1528	198.299
102.046	215.151
104.938	287.5
107.831	334.492
110.724	434.336
113.616	542.831
116.509	625.557
119.402	668.804
122.294	721.288
125.187	751.495
128.08	804.692
130.972	869.383
133.865	962.84
136.758	1025.76
139.651	1041.3
142.543	910.93
145.436	773.716
148.329	689.651
151.221	628.117
154.114	546.886
157.007	491.916
159.9	428.775
162.792	346.098
165.685	266.794
168.578	187.801
171.47	131.253
174.363	8.62036
177.256	44.8272
180.149	101.788
183.041	93.8213
185.934	130.865
188.827	123.322
191.719	107.075
194.612	35.7739
197.505	73.3877
200.397	123.786
203.29	310.419
206.183	497.027
209.076	680.747
211.968	927.285
214.861	1092.42
217.754	1295.28
220.646	1426.51
223.539	1591.83
226.432	1657.39
229.324	1745.79
232.217	1772.71
235.11	1666.46
238.002	1528.96
240.895	1372.06
243.788	1203.89
246.681	1133.82
249.573	908.553
252.466	986.861
255.359	1079.72
258.251	1238.15
261.144	1592.37
264.037	1976.98
266.93	2520.58
269.822	3000.55
272.715	3526.77
275.608	3744.73
278.5	3970.36
281.393	3935.45
284.286	3981.43
287.178	3814
290.071	3547.57
292.964	3257.34
295.856	2853.14
298.749	2232.53
301.642	1750.17
304.535	1203.34
307.427	819.566
310.32	497.174
313.213	340.281
316.105	249.981
318.998	479.07
321.891	698.906
324.784	1198.27
327.676	1742.67
330.569	2269.17
333.462	2756.68
336.354	3232.38
339.247	3703.88
342.14	4073.4
345.032	4383.65
347.925	4631.22
350.818	4515.58
353.711	4283.48
356.603	3942.64
359.496	3487.59
362.389	2951.75
365.281	2557.67
368.174	2096.14
371.067	1612.88
373.959	1187.6
376.852	818.046
379.745	490.79
382.637	271.897
385.53	60.9131
388.423	39.8906
391.316	97.4853
394.208	165.626
397.101	84.376
399.994	121.154
402.886	58.7978
405.779	26.959
408.672	144.883
411.565	202.232
414.457	356.496
417.35	434.935
420.243	398.633
423.135	411.035
426.028	364.662
428.921	430.379
431.813	374.761
434.706	380.54
437.599	309.089
440.492	348.942
443.384	230.077
446.277	230.192
449.17	184.883
452.062	108.498
454.955	140.336
457.848	78.2275
460.74	57.1211
463.633	122.841
466.526	23.8633
469.419	5.55273
472.311	2.74023
475.204	37.3648
478.097	142.531
480.989	197.088
483.882	258.746
486.775	226.886
489.668	234.738
492.56	209.406
495.453	259.472
498.346	215.115
501.238	169.155
504.131	111.244
507.024	82.2148
509.916	41.148
512.809	75.8892
515.702	8.12109
518.595	29.2148
521.487	68.3882
524.38	23.6182
527.273	39.9302
530.165	14.7461
533.058	61.665
535.951	114.294
538.843	37.6753
541.736	49.2778
544.629	2.78027
547.521	10.2544
550.414	44.3716
553.307	73.5659
556.2	164.32
559.092	199.216
561.985	264.03
564.878	232.124
567.77	294.347
570.663	395.335
573.556	501.108
576.448	598.714
579.341	741.666
582.234	909.323
585.127	1011.48
588.019	1088.42
590.912	1238.34
593.805	1346.14
596.697	1412.41
599.59	1448.72
602.483	1503.77
605.375	1458.37
608.268	1465.28
611.161	1372.33
614.054	1254.53
616.946	1204.01
619.839	1158.62
622.732	1099.48
625.625	1053.63
628.517	1049.57
631.41	1132.5
634.303	1090.83
637.195	1132.4
640.088	1240.17
642.981	1340.75
645.873	1390.08
648.766	1483.96
651.659	1536.07
654.552	1631.09
657.444	1651.38
660.337	1696.78
663.23	1619.99
666.122	1610.72
669.015	1450.63
671.908	1319.23
674.8	1191.38
677.693	1066.31
680.586	909.137
683.479	809.534
686.371	698.572
689.264	531.024
692.157	490.732
695.049	385.96
697.942	310.88
700.835	300.158
703.727	209.409
706.62	144.576
709.513	159.137
712.405	105.869
715.298	69.105
718.191	61.9958
721.084	44.9021
723.976	36.4724
726.869	30.6401
729.762	17.1365
732.654	16.7905
735.547	29.207
738.44	63.7315
741.332	18.2178
744.225	50.9731
747.118	63.2852
750.011	43.1448
752.903	14.1338
755.796	20.1335
758.689	3.2544
761.581	45.0596
764.474	80.5496
767.367	46.3088
770.26	61.4714
773.152	108.818
776.045	105.959
778.938	114.743
781.83	151.644
784.723	155.421
787.616	195.329
790.508	218.352
793.401	235.726
796.294	256.132
799.187	284.118
802.079	240.306
804.972	248.483
807.865	244.196
810.757	246.117
813.65	242.019
816.543	258.296
819.435	248.883
822.328	241.996
825.221	258.613
828.114	206.139
831.006	224.679
833.899	213.266
836.792	223.706
839.684	221.113
842.577	197.3
845.47	176.519
848.362	203.13
851.255	184.758
854.148	186.731
857.04	174.583
859.933	186.751
862.826	151.071
865.719	138.109
868.611	163.999
871.504	143.597
874.397	138.787
877.289	130.782
880.182	149.455
883.075	120.812
885.967	115.656
888.86	97.1787
891.753	104.696
894.646	77.4759
897.538	73.8899
900.431	94.1431
903.324	111.65
906.216	103.092
909.109	75.5603
912.002	109.132
914.894	104.486
917.787	128.302
920.68	106.024
923.573	96.0648
926.465	109.479
929.358	92.1189
932.251	84.0772
935.143	98.0687
938.036	113.423
940.929	72.3441
943.822	78.2715
946.714	66.3888
949.607	38.5242
952.5	18.7329
955.392	7.93213
958.285	5.14185
961.178	19.7459
964.07	14.9517
966.963	11.2051
969.856	8.49976
972.749	25.7681
975.641	38.2034
978.534	3.94116
981.427	34.2688
984.319	24.4915
987.212	46.8237
990.105	15.2922
992.997	23.1841
995.89	14.0796
998.783	7.14917
1001.68	18.075
1004.57	12.5515
1007.46	22.0742
1010.35	0.747559
1013.25	3.56152
1016.14	10.7476
1019.03	32.1274
1021.92	19.4019
1024.82	56.3452
1027.71	63.0361
1030.6	55.5625
1033.49	138.442
1036.39	145.618
1039.28	201.941
1042.17	242.521
1045.07	273.64
1047.96	331.32
1050.85	401.988
1053.74	410.525
1056.64	502.355
1059.53	589.233
1062.42	687.363
1065.32	741.02
1068.21	792.538
1071.1	859.117
1073.99	1004.97
1076.89	1098.16
1079.78	1106.45
1082.67	1199.05
1085.56	1287.85
1088.46	1308.2
1091.35	1375.65
1094.24	1539.02
1097.13	1596.46
1100.03	1648.7
1102.92	1716.91
1105.81	1797.36
1108.71	1902.24
1111.6	1998.67
1114.49	2036.09
1117.38	2297.03
1120.28	2534.88
1123.17	2734.03
1126.06	2817.22
1128.95	2967.24
1131.85	3000.26
1134.74	3049.06
1137.63	3149.11
1140.53	3137.27
1143.42	2924.22
1146.31	2965.08
1149.2	2863.9
1152.1	2861.07
1154.99	2677.82
1157.88	2308.08
1160.77	2079.06
1163.67	1652.59
1166.56	1183.76
1169.45	708.109
1172.35	111.719
1175.24	316.035
1178.13	171.242
1181.02	54.3281
1183.92	320.82
1186.81	604.508
1189.7	802.898
1192.59	930.644
1195.49	1162.53
1198.38	1357.09
1201.27	1591.95
1204.16	1319.44
1207.06	1040.17
1209.95	968.473
1212.84	960.965
1215.73	775.617
1218.63	549.586
1221.52	570.047
1224.41	486.641
1227.31	243.57
1230.2	77.7422
