Measurement: Raman, 780 nm, unoriented, Raman Data Processed
Mineral: Calcioaravaipaite
Rruff sample: R100033
Ideal chemistry: Pb^2+^Ca_2_AlF_9_
Locality: Grand Reef mine, Klondyke, Aravaipa District, Graham County, Arizona, USA
Source: Natural History Museum of Los Angeles County
Description: Colorless fragments from type specimen, associated with artroeite R100034.  Photos of type specimen are courtesy of LACMNH. Same sample as used in the Kampf et al (2011) study.
Raman shift (cm-1)	intensity
93.4617	0
96.8365	2.77617
100.211	2.61443
103.586	3.58954
106.961	4.92101
110.336	1.12346
113.711	1.06929
117.085	6.90865
120.46	12.2929
123.835	15.8403
127.21	12.8368
130.585	9.00661
133.959	5.02473
137.334	3.99605
140.709	0.014816
144.084	0.715378
147.459	1.48451
150.834	0.287643
154.208	2.84817
157.583	5.31635
160.958	10.0952
164.333	11.7956
167.708	13.8003
171.083	17.8555
174.457	14.887
177.832	11.2771
181.207	9.85762
184.582	5.47214
187.957	6.58937
191.331	5.3996
194.706	5.50934
198.081	5.87048
201.456	8.66118
204.831	9.40163
208.205	11.6533
211.58	14.4543
214.955	25.0158
218.33	30.6954
221.705	38.4697
225.079	48.931
228.454	53.6404
231.829	60.0181
235.204	64.7401
238.579	67.7883
241.954	68.0759
245.328	73.8831
248.703	78.5356
252.078	84.3752
255.453	87.2115
258.828	89.3999
262.202	85.3893
265.577	69.6174
268.952	56.6994
272.327	41.5528
275.702	27.8651
279.077	16.8237
282.451	7.34982
285.826	2.22247
289.201	0.971649
292.576	1.78824
295.951	2.12627
299.325	0.405624
302.7	4.66064
306.075	9.19954
309.45	14.8523
312.825	18.6354
316.2	20.663
319.574	20.4153
322.949	19.69
326.324	18.2518
329.699	14.8159
333.074	13.0409
336.449	13.8331
339.823	10.8677
343.198	14.3535
346.573	15.5934
349.948	15.3994
353.323	14.735
356.697	12.4665
360.072	9.64169
363.447	7.8609
366.822	3.99057
370.197	1.90947
373.572	1.02592
376.946	1.03447
380.321	0.297668
383.696	1.17235
387.071	3.01869
390.446	4.51331
393.82	7.75439
397.195	7.64638
400.57	8.66745
403.945	11.5274
407.32	16.4581
410.695	21.5958
414.069	25.4873
417.444	30.0487
420.819	33.3496
424.194	28.9189
427.569	29.9894
430.943	27.1991
434.318	23.1449
437.693	22.5352
441.068	17.6014
444.443	16.2422
447.817	14.2549
451.192	10.9555
454.567	9.38609
457.942	6.76314
461.317	4.45484
464.692	1.937
468.066	0.059013
471.441	1.49933
474.816	0.17424
478.191	0.516777
481.566	1.42576
484.94	0.008438
488.315	0.518364
491.69	2.14088
495.065	3.66702
498.44	5.1889
501.815	5.55309
505.189	9.38583
508.564	13.2597
511.939	15.6644
515.314	22.384
518.689	27.7201
522.063	35.2013
525.438	40.6205
528.813	42.7915
532.188	44.8714
535.563	40.1217
538.938	37.3816
542.312	29.9213
545.687	25.5879
549.062	21.8467
552.437	21.9074
555.812	21.2835
559.186	16.0788
562.561	12.5026
565.936	8.86762
569.311	2.94701
572.686	1.91043
576.061	1.37219
579.435	2.5424
582.81	0.665359
586.185	0.026421
589.56	0.048935
592.935	0.468826
596.309	1.51903
599.684	0.709831
603.059	0.063606
606.434	0.071823
609.809	0.323212
613.183	0.801765
616.558	0.495819
619.933	2.72684
623.308	4.9193
626.683	2.78229
630.058	5.52487
633.432	8.99018
636.807	13.2318
640.182	16.3064
643.557	19.1466
646.932	18.674
650.307	15.838
653.681	12.0634
657.056	9.59018
660.431	6.34881
663.806	4.24777
667.181	2.3937
670.555	1.27019
673.93	1.26438
677.305	2.36571
680.68	0.687851
684.055	1.04641
687.429	0.785606
690.804	1.79413
694.179	0.411736
697.554	2.08423
700.929	0.31675
704.304	1.47338
707.678	0.345848
711.053	2.58338
714.428	1.04707
717.803	1.1264
721.178	1.08955
724.553	1.18399
727.927	1.13946
731.302	1.82908
734.677	0.416443
738.052	0.604301
741.427	0.121914
744.801	0.987926
748.176	0.718613
751.551	1.0342
754.926	1.20412
758.301	1.60965
761.676	2.3161
765.05	1.92697
768.425	3.49187
771.8	3.71209
775.175	1.64832
778.55	1.15926
781.924	0.933815
785.299	0.257568
788.674	0.119095
792.049	0.222122
795.424	0.965935
798.798	0.200729
802.173	1.03282
805.548	2.19142
808.923	2.12377
812.298	2.40008
815.673	2.86986
819.047	3.59976
822.422	3.75612
825.797	5.3923
829.172	5.55955
832.547	7.17276
835.921	8.74373
839.296	9.6773
842.671	9.40485
846.046	9.13783
849.421	7.54432
852.795	6.47784
856.17	5.03008
859.545	2.49056
862.92	1.61554
866.295	2.22914
869.67	1.813
873.044	1.00264
876.419	2.49305
879.794	1.46372
883.169	2.06438
886.544	1.4623
889.918	1.40962
893.293	1.28322
896.668	1.02362
900.043	0.70961
903.418	0.680244
906.793	0.961769
910.167	0.049126
913.542	1.15348
916.917	0.156059
920.292	0.582718
923.667	0.264389
927.042	0.248009
930.416	0.545189
933.791	2.22161
937.166	1.1329
940.541	1.59703
943.916	2.72791
947.29	5.48493
950.665	6.81189
954.04	9.79416
957.415	9.78542
960.79	12.3876
964.164	11.2615
967.539	13.8934
970.914	12.9508
974.289	10.5789
977.664	13.2053
981.039	14.3108
984.413	13.4294
987.788	13.9022
991.163	12.0596
994.538	9.7805
997.913	7.80465
1001.29	7.12126
1004.66	5.81431
1008.04	5.39347
1011.41	5.19727
1014.79	3.96239
1018.16	4.43377
1021.54	5.21206
1024.91	6.81541
1028.29	5.57266
1031.66	8.42374
1035.04	6.77555
1038.41	9.45846
1041.79	11.3989
1045.16	12.8519
1048.54	13.9956
1051.91	17.6908
1055.29	19.1646
1058.66	21.622
1062.03	22.3458
1065.41	23.5269
1068.78	20.8642
1072.16	18.5176
1075.53	14.699
1078.91	14.1052
1082.28	11.6676
1085.66	11.3506
1089.03	9.35485
1092.41	7.53164
1095.78	5.24762
1099.16	0.220314
1102.53	1.68014
1105.91	1.95418
1109.28	1.28963
1112.66	3.58995
1116.03	3.68336
1119.41	1.74136
1122.78	5.47855
1126.16	10.8238
1129.53	20.9269
1132.9	35.9898
1136.28	59.0836
1139.65	91.5766
1143.03	139.957
1146.4	197.131
1149.78	275.742
1153.15	376.221
1156.53	482.224
1159.9	576.474
1163.28	639.36
1166.65	634.846
1170.03	575.386
1173.4	462.405
1176.78	334.2
1180.15	214.588
1183.53	118.309
1186.9	56.1319
1190.28	15.5461
1193.65	8.67725
1197.03	10.7561
1200.4	3.10138
1203.78	34.4507
1207.15	103.355
1210.53	208.608
1213.9	374.885
1217.28	583.05
1220.65	806.913
1224.03	987.307
1227.4	1049.54
1230.78	944.63
1234.15	773.909
1237.53	593.445
1240.9	458.779
1244.27	385.317
1247.65	350.902
1251.02	343.443
1254.4	346.799
1257.77	335.659
1261.15	304.987
1264.52	244.881
1267.9	169.617
1271.27	95.4107
1274.65	48.9914
1278.02	11.6758
1281.4	0.757477
1284.77	4.07773
