Measurement: Raman, 785 nm, unoriented, Raman Data Processed
Mineral: Calcite
Rruff sample: X050035
Ideal chemistry: CaCO_3_
Locality: Hilton Deposit, San Diego County, California, USA
Source: G.R. Rossman
Description: Vein calcite from a sub-optical calcite mine consisting of excellent cleavage rhombs.
Raman shift (cm-1)	intensity
206	0
210	86.339
214	98.525
218	68.745
222	70.37
226	34.772
230	8.74
234	0.929
238	4.766
242	37.862
246	72.956
250	107.803
254	162.044
258	246.716
262	357.88
266	521.22
270	831.079
274	1493.88
278	2979.8
282	4445.93
286	3159.08
290	1357.94
294	666.673
298	377.833
302	235.074
306	154.212
310	103.693
314	74.468
318	57.423
322	36.074
326	21.561
330	19.401
334	0.906
338	9.971
342	0.647
346	4.426
350	2.023
354	2.77
358	5.109
362	0.996
366	13.027
370	14.767
374	5.624
378	11.333
382	2.847
386	8.588
390	7.267
394	7.214
398	1.433
402	12.11
406	23.88
410	32.428
414	36.241
418	44.747
422	53.215
426	57.91
430	49.593
434	62.92
438	75.019
442	63.73
446	64.718
450	73.143
454	74.739
458	70.175
462	65.978
466	64.917
470	60.155
474	59.762
478	62.974
482	53.85
486	61.395
490	58.305
494	49.279
498	46.049
502	42.971
506	33.787
510	22.834
514	31.568
518	26.592
522	24.139
526	23.137
530	17.554
534	25.444
538	17.847
542	15.062
546	13.686
550	16.913
554	11.418
558	24.007
562	20.422
566	14.443
570	18.11
574	15.691
578	28.058
582	16.424
586	18.243
590	20.644
594	22.718
598	19.521
602	12.994
606	16.513
610	12.929
614	5.053
618	1.01
622	3.601
626	0.792
630	3.057
634	0.729
638	0.513
642	1.765
646	2.369
650	10.091
654	5.375
658	3.441
662	8.849
666	1.262
670	0.042
674	2.95
678	2.083
682	4.999
686	7.01
690	6.35
694	16.984
698	26.114
702	38.458
706	109.845
710	618.735
714	720.203
718	139.409
722	37.573
726	25.475
730	21.346
734	19.385
738	18.167
742	8.564
746	7.183
750	5.061
754	4.386
758	1.969
762	6.164
766	2.519
770	2.38
774	0.834
778	5.044
782	2.335
786	1.316
790	3.917
794	3.859
798	6.559
802	1.588
806	7.308
810	11.718
814	17.508
818	9.021
822	17.47
826	18.995
830	24.913
834	22.333
838	18.876
842	27.472
846	23.394
850	31.643
854	30.16
858	38.176
862	35.696
866	41.411
870	47.288
874	42.194
878	48.87
882	48.844
886	53.779
890	53.341
894	59.776
898	61.001
902	62.19
906	60.506
910	58.308
914	57.262
918	57.474
922	63.814
926	63.45
930	64.886
934	68.588
938	82.482
942	88.343
946	97.467
950	102.959
954	115.644
958	108.454
962	104.647
966	105.694
970	96.017
974	91.966
978	89.496
982	85.346
986	81.759
990	74.836
994	67.381
998	69.737
1002	62.37
1006	52.089
1010	51.587
1014	46.477
1018	37.269
1022	33.39
1026	20.741
1030	15.336
1034	12.283
1038	1.301
1042	7.058
1046	18.205
1050	20.775
1054	24.654
1058	26.351
1062	21.622
1066	22.915
1070	3.972
1074	41.476
1078	207.588
1082	2298.66
1086	7230.19
1090	1034.16
1094	134.94
1098	87.68
1102	97.987
1106	128.962
1110	176.971
1114	223.739
1118	272.173
1122	297.037
1126	304.565
1130	295.673
1134	271.471
1138	265.833
1142	258.831
1146	281.486
1150	304.876
1154	328.571
1158	359.942
1162	389.763
1166	436.761
1170	488.713
1174	532.655
1178	589.934
1182	638.708
1186	667.254
1190	661.133
1194	640.24
1198	607.997
1202	600.8
1206	573.742
1210	560.725
1214	536.536
1218	483.061
1222	408.624
1226	319.078
1230	230.121
1234	154.936
1238	99.754
1242	67.68
1246	49.901
1250	51.183
1254	74.485
1258	99.824
1262	140.198
1266	160.138
1270	174.231
1274	210.588
1278	269.103
1282	358.873
1286	486.748
1290	656.268
1294	819.063
1298	953.57
1302	986.646
1306	919.297
1310	731.727
1314	553.201
1318	377.774
1322	249.912
1326	137.998
1330	66.984
1334	40.058
1338	8.428
1342	0.541
1346	9.488
1350	8.168
1354	9.551
1358	28.298
1362	53.903
1366	79.769
1370	110.744
1374	163.962
1378	215.488
1382	271.63
1386	319.04
1390	347.567
1394	332.716
1398	280.07
1402	201.404
1406	136.277
1410	82.763
1414	29.284
1418	3.414
1422	22.972
1426	27.216
1430	12.997
1434	92.037
1438	30.113
1442	1.906
1446	11.275
1450	31.753
1454	61.482
1458	91.19
1462	107.8
1466	97.091
1470	131.299
1474	115.262
1478	100.285
1482	82.612
1486	59.378
1490	38.345
1494	17.104
1498	6.005
