Measurement: Raman, 780 nm, unoriented, Raman Data Processed
Mineral: Calcioancylite-(Ce)
Rruff sample: R130005
Ideal chemistry: (Ce,Ca,Sr)(CO_3_)(OH,H_2_O)
Locality: Mont Saint-Hilaire, Rouville RCM, Monteregie, Quebec, Canada
Source: Don Doell
Description: Granular massive, green under sunlight, light red under microscope light, associated with albite and rhodochrosite
Raman shift (cm-1)	intensity
177.981	1648.24
180.873	1731.93
183.766	1817.41
186.659	1884.46
189.551	1922.44
192.444	1942.96
195.337	1946.6
198.229	1949.44
201.122	1982.21
204.015	2022.49
206.907	2092.66
209.8	2155.12
212.693	2233.96
215.586	2321.03
218.478	2410.74
221.371	2486.03
224.264	2556.91
227.156	2595.13
230.049	2650.52
232.942	2697.14
235.834	2753.47
238.727	2802.86
241.62	2843.22
244.513	2880.01
247.405	2898.43
250.298	2895.23
253.191	2903.26
256.083	2900.97
258.976	2906.54
261.869	2923.43
264.762	2952.69
267.654	2985.61
270.547	3024.11
273.44	3064.71
276.332	3130.29
279.225	3186.68
282.118	3248.63
285.01	3315.11
287.903	3398.08
290.796	3482.86
293.688	3574.66
296.581	3663.32
299.474	3755.29
302.366	3861.47
305.259	3968.24
308.152	4049.66
311.045	4134.54
313.937	4203.35
316.83	4236.74
319.723	4245.8
322.615	4243.44
325.508	4196
328.401	4121.41
331.293	4035.89
334.186	3911.08
337.079	3793.32
339.972	3653.68
342.864	3526.86
345.757	3401.34
348.65	3300.32
351.542	3215.19
354.435	3122.07
357.328	3072.7
360.221	3029.94
363.113	3000.05
366.006	2969.37
368.899	2942.47
371.791	2909.33
374.684	2857.55
377.577	2826.73
380.469	2795.94
383.362	2752.45
386.255	2706.69
389.147	2684.05
392.04	2637.82
394.933	2594.02
397.826	2557.81
400.718	2529.03
403.611	2481.32
406.504	2461.99
409.396	2436.06
412.289	2410.15
415.182	2375.28
418.075	2364.53
420.967	2351.16
423.86	2331.33
426.753	2329.96
429.645	2321.98
432.538	2321.83
435.431	2326.33
438.323	2316.08
441.216	2329.09
444.109	2340.59
447.001	2360.11
449.894	2363.6
452.787	2378.54
455.68	2398.11
458.572	2423.64
461.465	2444.43
464.358	2446.27
467.25	2473.28
470.143	2501.01
473.036	2524.54
475.928	2541.58
478.821	2553.68
481.714	2587.38
484.606	2606.16
487.499	2639.04
490.392	2663.3
493.285	2677.87
496.177	2703.08
499.07	2703.28
501.963	2742.43
504.855	2768.12
507.748	2778.62
510.641	2808.64
513.534	2814.11
516.426	2854.95
519.319	2867.51
522.212	2894.06
525.104	2916.59
527.997	2936.72
530.89	2939.95
533.782	2948.33
536.675	2969.76
539.568	2979.73
542.46	2985.91
545.353	2995.06
548.246	2991.48
551.139	2993.87
554.031	2980.09
556.924	2976.77
559.817	2967.96
562.709	2951.93
565.602	2943.38
568.495	2934.04
571.388	2916.46
574.28	2899.48
577.173	2881.24
580.066	2867.99
582.958	2848.77
585.851	2835.26
588.744	2823.11
591.636	2791
594.529	2775.24
597.422	2742.39
600.314	2726.17
603.207	2695.11
606.1	2671.27
608.993	2643.94
611.885	2613.91
614.778	2575
617.671	2556.72
620.563	2512.84
623.456	2480.07
626.349	2449.85
629.241	2413.71
632.134	2379.35
635.027	2340.23
637.919	2308.19
640.812	2280.19
643.705	2250.07
646.598	2215.73
649.49	2190.22
652.383	2160.57
655.276	2132.88
658.168	2105.56
661.061	2083.34
663.954	2047.88
666.846	2031.55
669.739	2002.52
672.632	1969.25
675.525	1938.49
678.417	1906.24
681.31	1887.81
684.203	1853.08
687.095	1838.67
689.988	1802.53
692.881	1799.05
695.774	1801.7
698.666	1816.96
701.559	1762.08
704.452	1652.27
707.344	1570.83
710.237	1514.61
713.13	1478.1
716.022	1455.95
718.915	1437.64
721.808	1430.05
724.7	1432.79
727.593	1408.93
730.486	1321.55
733.379	1228.48
736.271	1153.98
739.164	1107.72
742.057	1071.38
744.949	1031.3
747.842	999.082
750.735	967.862
753.627	935.945
756.52	912.435
759.413	883.112
762.306	861.581
765.198	835.995
768.091	813.144
770.984	787.507
773.876	759.531
776.769	737.358
779.662	712.707
782.554	695.488
785.447	668.851
788.34	652.851
791.232	632.035
794.125	611.761
797.018	590.084
799.911	568.588
802.803	554.348
805.696	537.104
808.589	520.195
811.481	508.294
814.374	486.838
817.267	480.338
820.159	473.175
823.052	459.951
825.945	452.945
828.838	440.283
831.73	435.035
834.623	427.318
837.516	414.249
840.408	414.191
843.301	406.093
846.194	405.838
849.087	405.503
851.979	400.693
854.872	402.572
857.765	398.891
860.657	391.257
863.55	390.481
866.443	387.046
869.335	386.445
872.228	384.321
875.121	384.686
878.013	382.01
880.906	384.119
883.799	384.315
886.692	382.773
889.584	383.452
892.477	383.032
895.37	391.581
898.262	391.557
901.155	394.261
904.048	397.958
906.94	399.371
909.833	404.029
912.726	406.74
915.619	412.728
918.511	417.047
921.404	423.335
924.297	428.762
927.189	438.146
930.082	446.381
932.975	450.665
935.867	464.409
938.76	471.696
941.653	479.967
944.545	485.267
947.438	497.192
950.331	511.768
953.224	519.438
956.116	530.117
959.009	545.802
961.902	563.841
964.794	575.931
967.687	586.327
970.58	597.528
973.472	613.386
976.365	631.611
979.258	648.398
982.151	662.55
985.043	674.399
987.936	694.079
990.829	713.905
993.721	735.547
996.614	751.521
999.507	771.41
1002.4	790.869
1005.29	815.163
1008.18	837.954
1011.08	859.465
1013.97	883.591
1016.86	913.381
1019.76	935.581
1022.65	970.917
1025.54	1001.27
1028.43	1037.61
1031.33	1057.73
1034.22	1093.79
1037.11	1132.09
1040.01	1164.61
1042.9	1204.28
1045.79	1245.27
1048.68	1282.66
1051.58	1328.71
1054.47	1380.65
1057.36	1434.65
1060.25	1486.04
1063.15	1552.32
1066.04	1645.08
1068.93	1751.12
1071.82	1907.38
1074.72	2080.52
1077.61	2266.78
1080.5	2485.57
1083.39	2778.53
1086.29	2756.1
1089.18	2449.16
1092.07	2214.95
1094.97	2177.1
1097.86	2218.83
1100.75	2301.82
1103.64	2361.78
1106.54	2447.9
1109.43	2520.41
1112.32	2607.88
1115.21	2701.72
1118.11	2798.72
1121	2905.02
1123.89	3013.66
1126.79	3142.66
1129.68	3254.3
1132.57	3395.38
1135.46	3536.26
1138.36	3691.55
1141.25	3869.69
1144.14	4052.73
1147.03	4236.46
1149.93	4433.73
1152.82	4683.29
1155.71	4943.9
1158.61	5211.48
1161.5	5514.85
1164.39	5849.11
1167.28	6259.67
1170.18	6690.62
1173.07	7169.75
1175.96	7680.8
1178.85	8232.75
1181.75	8877.54
1184.64	9556.3
1187.53	10336
1190.42	11140.3
1193.32	12034.3
1196.21	13058.3
1199.1	14102.6
1202	15322.9
1204.89	16615.3
1207.78	17918.2
1210.67	19438.5
1213.57	21062.5
1216.46	22728.2
1219.35	24397.8
1222.24	26013.3
1225.14	27587.3
1228.03	28689
1230.92	29462.4
1233.82	29731.9
1236.71	29655.4
1239.6	29210.4
1242.49	28562.8
1245.39	27852.6
1248.28	27069.4
1251.17	26274.9
1254.06	25524.7
1256.96	24765.6
1259.85	23995.9
1262.74	23382
1265.63	22867
1268.53	22601.8
1271.42	22466.3
1274.31	22491.2
1277.21	22656.6
1280.1	22903.6
1282.99	23310.3
