Measurement: Raman, 532 nm, unoriented, Raman Data Processed
Mineral: Cannizzarite
Rruff sample: R060609
Ideal chemistry: Pb^2+^_8_Bi^3+^_10_S^2-^_23_
Locality: Kudryavy volcano, Iturup, Kuril Islands, Russia
Source: Michael Scott
Description: Gray metallic thin platy crystals
Raman shift (cm-1)	intensity
96.458	0
99.351	2.319
102.243	15.277
105.136	12.288
108.029	23.702
110.921	12.071
113.814	24.192
116.707	14.036
119.6	5.976
122.492	6.425
125.385	10.998
128.278	0.922
131.17	23.239
134.063	26.44
136.956	39.11
139.848	78.86
142.741	53.444
145.634	55.596
148.527	73.623
151.419	72.933
154.312	87.617
157.205	88.622
160.097	97.324
162.99	81.871
165.883	105.134
168.775	109.711
171.668	102.505
174.561	103.117
177.454	94.74
180.346	88.005
183.239	93.514
186.132	70.275
189.024	80.085
191.917	90.42
194.81	57.397
197.702	61.158
200.595	62.191
203.488	45.539
206.38	54.8
209.273	66.051
212.166	55.535
215.059	44.687
217.951	58.127
220.844	49.552
223.737	46.119
226.629	48.981
229.522	60.629
232.415	43.285
235.307	38.507
238.2	56.884
241.093	43.49
243.986	53.027
246.878	47.992
249.771	62.865
252.664	66.757
255.556	65.724
258.449	76.709
261.342	77.618
264.234	85.576
267.127	90.671
270.02	74.944
272.913	54.865
275.805	45.634
278.698	29.49
281.591	16.011
284.483	26.805
287.376	20.942
290.269	10.574
293.161	3.731
296.054	6.913
298.947	12.791
301.84	16.359
304.732	6.926
307.625	9.736
310.518	1.715
313.41	0.784
316.303	16.137
319.196	4.638
322.089	4.654
324.981	7.71
327.874	6.367
330.767	12.735
333.659	8.792
336.552	3.941
339.445	8.552
342.337	4.052
345.23	25.633
348.123	1.689
351.016	22.604
353.908	17.471
356.801	20.152
359.694	10.087
362.586	17.21
365.479	10.114
368.372	12.654
371.264	19.89
374.157	21.876
377.05	17.057
379.943	23.973
382.835	11.149
385.728	18.226
388.621	15.34
391.513	21.871
394.406	12.524
397.299	16.13
400.191	21.475
403.084	13.979
405.977	31.152
408.87	28.691
411.762	13.708
414.655	1.666
417.548	8.556
420.44	22.354
423.333	28.78
426.226	18.082
429.118	22.221
432.011	15
434.904	11.238
437.797	19.433
440.689	25.45
443.582	25.87
446.475	4.814
449.367	12.195
452.26	20.904
455.153	4.57
458.045	9.064
460.938	3.706
463.831	10.98
466.724	2.039
469.616	12.625
472.509	29.369
475.402	27.943
478.294	1.909
481.187	21.301
484.08	9.356
486.972	24.726
489.865	14.433
492.758	22.826
495.651	28.75
498.543	25.674
501.436	23.125
504.329	11.647
507.221	6.816
510.114	19.853
513.007	3.477
515.899	2.917
518.792	23.462
521.685	16.454
524.578	18.324
527.47	17.197
530.363	19.147
533.256	23.865
536.148	9.046
539.041	31.193
541.934	11.03
544.826	16.835
547.719	24.455
550.612	9.597
553.505	12.317
556.397	11.545
559.29	27.59
562.183	12.064
565.075	10.987
567.968	6.849
570.861	13.716
573.753	30.821
576.646	12.263
579.539	34.625
582.432	9.824
585.324	4.394
588.217	13.998
591.11	5.293
594.002	13.655
596.895	20.251
599.788	33.121
602.68	23.663
605.573	11.447
608.466	15.095
611.359	15.715
614.251	13.243
617.144	19.862
620.037	29.425
622.929	8.682
625.822	9.232
628.715	9.732
631.607	9.313
634.5	9.865
637.393	17.665
640.286	1.066
643.178	5.911
646.071	5.525
648.964	25.32
651.856	18.031
654.749	8.695
657.642	5.97
660.534	12.352
663.427	20.024
666.32	11.484
669.213	2.594
672.105	5.522
674.998	10.25
677.891	16.147
680.783	28.824
683.676	16.546
686.569	13.025
689.461	21.324
692.354	16.161
695.247	22.219
698.14	19.169
701.032	18.178
703.925	13.119
706.818	9.231
709.71	11.037
712.603	2.46
715.496	18.03
718.388	17.616
721.281	7.596
724.174	17.867
727.067	16.11
729.959	15.9
732.852	21.293
735.745	2.619
738.637	3.681
741.53	8.74
744.423	15.594
747.315	6.331
750.208	18.321
753.101	17.098
755.994	9.46
758.886	8.785
761.779	3.705
764.672	21.209
767.564	4.633
770.457	7.474
773.35	9.357
776.242	21.1
779.135	22.068
782.028	18.871
784.92	6.253
787.813	30.201
790.706	15.405
793.599	8.789
796.491	0.514
799.384	6.384
802.277	14.766
805.169	32.136
808.062	16.969
810.955	20.721
813.847	18.435
816.74	26.869
819.633	16.319
822.526	10.71
825.418	14.363
828.311	23.051
831.204	13.532
834.096	11.118
836.989	12.576
839.882	29.394
842.774	8.293
845.667	13.987
848.56	4.493
851.453	32.165
854.345	5.573
857.238	20.987
860.131	2.663
863.023	6.902
865.916	1.621
868.809	7.95
871.701	17.363
874.594	25.597
877.487	3.171
880.38	15.589
883.272	10.78
886.165	26.436
889.058	10.864
891.95	21.906
894.843	1.329
897.736	15.067
900.628	3.42
903.521	11.32
906.414	15.426
909.307	10.509
912.199	12.744
915.092	3.061
917.985	20.116
920.877	18.592
923.77	14.313
926.663	1.474
929.555	3.579
932.448	11.533
935.341	21.154
938.234	14.671
941.126	7.862
944.019	18.036
946.912	13.039
949.804	17.772
952.697	0.793
955.59	20.513
958.482	3.567
961.375	7.885
964.268	2.33
967.161	3.81
970.053	3.927
972.946	9.843
975.839	10.111
978.731	11.619
981.624	14.904
984.517	27.178
987.409	10.061
990.302	11.231
993.195	19.852
996.088	10.735
998.98	21.675
1001.87	40.862
1004.77	26.296
1007.66	12.015
1010.55	36.992
1013.44	13.839
1016.34	26.204
1019.23	31.83
1022.12	4.821
1025.02	10.947
1027.91	22.161
1030.8	17.399
1033.69	25.987
1036.59	11.405
1039.48	41
1042.37	0.014
1045.26	41.957
1048.16	34.045
1051.05	28.57
1053.94	7.852
1056.83	23.72
1059.73	8.348
1062.62	27.366
1065.51	8.501
1068.4	17.58
1071.3	28.694
1074.19	26.183
1077.08	15.924
1079.98	39.347
1082.87	35.919
1085.76	1.529
1088.65	27.431
1091.55	17.369
1094.44	5.974
1097.33	12.707
1100.22	1.825
1103.12	29.621
1106.01	19.509
1108.9	13.178
1111.8	6.653
1114.69	0.941
1117.58	30.877
1120.47	19.029
1123.37	38.648
1126.26	6.17
1129.15	15.965
1132.04	18.392
1134.94	26.075
1137.83	21.494
1140.72	23.438
1143.62	23.528
1146.51	23.603
1149.4	0.912
1152.29	9.628
1155.19	4.498
1158.08	11.946
1160.97	7.677
1163.86	22.709
1166.76	13.863
1169.65	15.274
1172.54	8.872
1175.43	18.366
1178.33	12.694
1181.22	19.789
1184.11	13.474
1187.01	18.531
1189.9	28.854
1192.79	18.398
1195.68	13.08
1198.58	18.205
1201.47	13.486
1204.36	11.412
1207.26	13.672
1210.15	18.028
1213.04	17.662
1215.93	3.195
1218.83	27.136
1221.72	23.002
1224.61	16.622
1227.5	7.554
1230.4	9.466
1233.29	18.587
1236.18	17.957
1239.07	20.313
1241.97	5.595
1244.86	4.317
1247.75	0
