Measurement: Raman, 532 nm, unoriented, Raman Data Processed
Mineral: Carnallite
Rruff sample: R050353
Ideal chemistry: KMgCl_3_6H_2_O
Locality: Strassfurt, Germany
Source: California Institute of Technology
Description: Colorless single crystals and grains associated with halite, sylvite, and anhydrite.
Raman shift (cm-1)	intensity
174.522	0
177.415	108.176
180.308	1094.54
183.201	2941.85
186.093	5459.48
188.986	8292.48
191.879	11805.1
194.771	14467.5
197.664	16499
200.557	17706.1
203.449	18303.4
206.342	17629.2
209.235	16206.1
212.127	15997.3
215.02	14607.9
217.913	13366.7
220.806	11737.1
223.698	9853.23
226.591	8476.65
229.484	6318.94
232.376	4054.27
235.269	2523.44
238.162	1485.82
241.054	546.418
243.947	299.598
246.84	440.644
249.732	206.582
252.625	49.5938
255.518	611.512
258.411	9.78906
261.303	136.867
264.196	216.34
267.089	842.996
269.981	834.555
272.874	911.332
275.767	1261.5
278.659	1654.2
281.552	2217.59
284.445	2727.16
287.338	3369.75
290.23	3915.15
293.123	4658.22
296.016	5074.23
298.908	5228.47
301.801	5523.45
304.694	5106.73
307.587	5205.69
310.479	4645.27
313.372	4015.86
316.265	3291.97
319.157	2557.24
322.05	2165.8
324.943	1261.63
327.835	843.152
330.728	445.582
333.621	258.969
336.514	92.1367
339.406	84.9453
342.299	120.172
345.192	93.3438
348.084	814.562
350.977	1005.41
353.87	1336.7
356.762	1841.97
359.655	2152.84
362.548	2955.09
365.44	3033.32
368.333	3215.36
371.226	3253.36
374.119	3082.48
377.011	3013.86
379.904	3032.97
382.797	2797.87
385.689	2467.02
388.582	2257.91
391.475	2214.36
394.368	2143.43
397.26	2160.26
400.153	2016.64
403.046	2024.88
405.938	1706.14
408.831	1565.73
411.724	1596.43
414.616	1604.27
417.509	1566.65
420.402	1262.93
423.295	1237.98
426.187	1260.05
429.08	1035.81
431.973	826.871
434.865	321.094
437.758	654.793
440.651	809.688
443.543	428.742
446.436	512.336
449.329	416.121
452.221	5.72266
455.114	482.102
458.007	15.4609
460.9	283.57
463.792	255.273
466.685	130.832
469.578	102.719
472.47	42.0703
475.363	3.17188
478.256	103.199
481.149	50.6914
484.041	217.707
486.934	48.6445
489.827	280.672
492.719	2.45703
495.612	70.0977
498.505	83.7266
501.397	20.668
504.29	63.8945
507.183	7.77344
510.075	6.92188
512.968	124.547
515.861	302.027
518.754	407.856
521.646	302.293
524.539	421.023
527.432	290.828
530.324	548.336
533.217	696.301
536.11	444.793
539.002	606.359
541.895	752.289
544.788	883.016
547.681	906.445
550.573	542.16
553.466	681.379
556.359	279.418
559.251	380.027
562.144	278.172
565.037	116.621
567.929	498.195
570.822	127.828
573.715	123.188
576.607	66.7539
579.5	9.36328
582.393	48.293
585.286	153.574
588.178	275.266
591.071	497.41
593.964	426.469
596.856	509.766
599.749	860.336
602.642	690.715
605.534	1052.72
608.427	1517.19
611.32	2106.42
614.213	2778.91
617.105	3089.53
619.998	3780.37
622.891	4329.51
625.783	4243.03
628.676	5285.4
631.569	6119.07
634.462	6325.17
637.354	7075.33
640.247	7851.43
643.14	8269.04
646.032	8938.57
648.925	9376.69
651.818	9679.8
654.71	9798.72
657.603	9719.28
660.496	9456.61
663.389	9530.8
666.281	9095.08
669.174	8629.53
672.067	7593.56
674.959	6782
677.852	5799.77
680.745	4517.28
683.637	3933.55
686.53	3467.77
689.423	2659.09
692.316	2106.04
695.208	1892.75
698.101	1395.9
700.994	1193.01
703.886	844.137
706.779	442.68
709.672	294.781
712.564	24.7383
715.457	185.16
718.35	332.871
721.242	126.965
724.135	223.102
727.028	34.457
729.921	9.01172
732.813	110.215
735.706	197.578
738.599	121.766
741.491	128.106
744.384	93.625
747.277	33.75
750.169	9.21484
753.062	179.688
755.955	660.469
758.848	389.492
761.74	399.402
764.633	35.8828
767.526	175.906
770.418	218.391
773.311	369.316
776.204	669.676
779.096	331.922
781.989	436.453
784.882	482.816
787.775	460.57
790.667	331.168
793.56	227.188
796.453	598.348
799.345	549.211
802.238	362.406
805.131	113.352
808.024	416.703
810.916	406.047
813.809	615.176
816.702	625.438
819.594	703.453
822.487	717.414
825.38	680.293
828.272	893.914
831.165	789.269
834.058	796.402
836.95	362.328
839.843	418.16
842.736	751.445
845.629	541.535
848.521	353.707
851.414	725.906
854.307	626.266
857.199	565.547
860.092	646.242
862.985	487.231
865.877	458.945
868.77	312.348
871.663	288.188
874.556	15.9727
877.448	215.668
880.341	121.894
883.234	292.676
886.126	180.281
889.019	281.199
891.912	66.5703
894.804	163.465
897.697	134.242
900.59	201.363
903.482	164.481
906.375	332.543
909.268	321.5
912.161	88.8359
915.053	159.012
917.946	83.082
920.839	359.441
923.731	250.012
926.624	515.184
929.517	359.613
932.409	90.0312
935.302	498.328
938.195	354.359
941.088	438.199
943.98	351.422
946.873	282.641
949.766	79.6055
952.658	231.992
955.551	240.566
958.444	163.398
961.337	117.656
964.229	330.477
967.122	124.664
970.015	136.519
972.907	295.965
975.8	262.68
978.693	313.469
981.585	69.8242
984.478	311.242
987.371	369.336
990.264	280.184
993.156	11.0742
996.049	36.8516
998.942	216.32
1001.83	245.984
1004.73	647.918
1007.62	311.25
1010.51	555.648
1013.4	421.957
1016.3	6.34766
1019.19	496.848
1022.08	263.211
1024.98	242.785
1027.87	279.062
1030.76	86.8867
1033.65	216.492
1036.55	406.066
1039.44	134.543
1042.33	560.633
1045.22	816.648
1048.12	250.188
1051.01	117.523
1053.9	60.418
1056.8	255.383
1059.69	154.738
1062.58	415.519
1065.47	257.348
1068.37	93.0977
1071.26	388.125
1074.15	127.156
1077.04	430.773
1079.94	324.113
1082.83	369.203
1085.72	276.863
1088.62	451.117
1091.51	492.227
1094.4	496.172
1097.29	455.75
1100.19	572.195
1103.08	531.547
1105.97	590.742
1108.86	528.871
1111.76	632.269
1114.65	485.539
1117.54	459.887
1120.43	725.488
1123.33	280.043
1126.22	54.0234
1129.11	19.5781
1132.01	35.2344
1134.9	17.582
1137.79	161.543
1140.68	119.785
1143.58	410.672
1146.47	302.977
1149.36	215.004
1152.26	295.582
1155.15	313.766
1158.04	90.1367
1160.93	61.1211
1163.83	160.469
1166.72	281.559
1169.61	147.387
1172.5	259.82
1175.4	46.3594
1178.29	385.043
1181.18	269.316
1184.07	292.394
1186.97	295.508
1189.86	306.16
1192.75	274.41
1195.64	41.957
1198.54	252.867
1201.43	90.5117
1204.32	198.965
1207.22	236.809
1210.11	555.246
1213	262.32
1215.89	523.875
1218.79	293.019
1221.68	80.4102
1224.57	655.816
1227.46	164.277
1230.36	193.559
1233.25	314.273
1236.14	344.629
1239.04	247.961
1241.93	729.047
1244.82	532.031
1247.71	680.301
1250.61	777.57
1253.5	770.102
1256.39	169.371
1259.29	226.269
1262.18	259.984
1265.07	436.856
1267.96	290.738
1270.86	161.719
1273.75	14.9805
1276.64	559.543
1279.53	525.352
1282.43	712.207
1285.32	474.676
1288.21	527.273
1291.1	250.633
1294	187.152
1296.89	317.059
1299.78	7.20312
