Measurement: Raman, 785 nm, unoriented, Raman Data Processed
Mineral: Carnallite
Rruff sample: R070291
Ideal chemistry: KMgCl_3_6H_2_O
Locality: Leopoldshall, Stassfurt, Stassfurt Deposit, Saxony-Anhalt, Germany
Source: Michael Scott
Description: Pink to grey coarse grained, poorly consolidated, melted surface, associated with kainite R100021 and pentahydrite R100022.
Raman shift (cm-1)	intensity
167.785	0
170.677	22.8435
173.57	14.8184
176.463	15.206
179.356	4.82263
182.248	3.15247
185.141	30.8579
188.034	0.46521
190.926	48.0106
193.819	41.5133
196.712	21.8105
199.604	27.746
202.497	85.038
205.39	30.4609
208.282	46.7385
211.175	67.5341
214.068	5.10889
216.961	64.7963
219.853	39.1731
222.746	49.7482
225.639	66.4496
228.531	33.1349
231.424	58.0358
234.317	51.5804
237.209	46.2158
240.102	38.3525
242.995	28.053
245.888	13.196
248.78	23.7212
251.673	22.3762
254.566	19.3755
257.458	9.31445
260.351	41.478
263.244	7.2605
266.137	10.1594
269.029	10.6924
271.922	10.6177
274.815	25.4966
277.707	45.7937
280.6	9.9248
283.493	50.7959
286.385	45.7163
289.278	32.8738
292.171	53.4949
295.063	29.3948
297.956	13.0525
300.849	15.738
303.742	24.8018
306.634	30.1816
309.527	26.5601
312.42	54.1138
315.312	16.9485
318.205	43.9863
321.098	55.1545
323.99	58.6494
326.883	33.4333
329.776	41.349
332.669	55.4979
335.561	72.6993
338.454	57.4281
341.347	122.776
344.239	90.6508
347.132	64.1527
350.025	99.5151
352.918	114.037
355.81	76.2587
358.703	91.5092
361.596	55.2784
364.488	61.827
367.381	28.593
370.274	38.9176
373.166	5.61353
376.059	34.119
378.952	38.9012
381.844	10.657
384.737	56.1989
387.63	27.9952
390.523	11.0564
393.415	2.62585
396.308	19.3875
399.201	9.93567
402.093	16.2759
404.986	10.85
407.879	9.37329
410.772	16.7174
413.664	0.070557
416.557	49.2026
419.45	31.057
422.342	37.7482
425.235	37.4856
428.128	66.5687
431.02	27.4569
433.913	34.3201
436.806	25.1414
439.699	35.5304
442.591	32.332
445.484	27.2897
448.377	25.9144
451.269	36.5668
454.162	15.7376
457.055	25.8861
459.947	13.2896
462.84	13.2548
465.733	30.1248
468.625	34.8926
471.518	24.8439
474.411	12.0973
477.304	22.7096
480.196	0.115601
483.089	14.1304
485.982	24.0886
488.874	30.6747
491.767	20.9016
494.66	20.7799
497.553	28.9523
500.445	32.8398
503.338	18.9486
506.231	31.9895
509.123	35.1166
512.016	40.1559
514.909	11.3768
517.802	33.0565
520.694	11.7642
523.587	25.6399
526.48	12.3212
529.372	10.2009
532.265	5.4967
535.158	3.65784
538.05	35.4958
540.943	8.83557
543.836	0.783813
546.729	15.32
549.621	36.4775
552.514	14.1867
555.407	9.0304
558.299	21.4875
561.192	14.1815
564.085	2.87549
566.977	12.9988
569.87	20.1057
572.763	21.4365
575.655	29.3856
578.548	22.9521
581.441	23.3923
584.333	32.0532
587.226	35.1599
590.119	20.1446
593.012	37.0156
595.904	12.5748
598.797	14.2151
601.69	33.3848
604.582	24.4404
607.475	19.057
610.368	3.91699
613.26	20.422
616.153	20.1492
619.046	30.7487
621.939	18.8566
624.831	30.5734
627.724	42.9733
630.617	30.3856
633.509	50.0892
636.402	13.2899
639.295	15.1982
642.188	27.2943
645.08	11.9026
647.973	31.0436
650.866	43.512
653.758	3.89954
656.651	15.7971
659.544	33.5725
662.436	20.8868
665.329	25.4822
668.222	33.5809
671.115	0.247437
674.007	5.52368
676.9	34.512
679.793	21.5084
682.685	23.01
685.578	15.7577
688.471	3.87842
691.363	43.0425
694.256	24.65
697.149	51.4231
700.042	5.43469
702.934	45.8938
705.827	41.5446
708.72	3.87891
711.612	19.7759
714.505	15.5504
717.398	5.37061
720.29	2.53552
723.183	22.1022
726.076	28.983
728.968	13.8628
731.861	17.8807
734.754	22.5798
737.647	5.75952
740.539	22.1604
743.432	18.6536
746.325	19.5181
749.217	19.5549
752.11	38.1641
755.003	0.998169
757.895	18.2903
760.788	5.16382
763.681	17.2273
766.574	2.37073
769.466	21.3568
772.359	31.6335
775.252	10.2976
778.144	16.8442
781.037	13.4785
783.93	48.9417
786.822	8.81665
789.715	38.8447
792.608	16.0624
795.501	11.6564
798.393	26.4265
801.286	22.7242
804.179	29.6444
807.071	29.8208
809.964	20.2139
812.857	40.6891
815.75	14.9371
818.642	24.1178
821.535	22.1645
824.428	48.1838
827.32	29.2693
830.213	9.52551
833.106	9.06519
835.998	13.0162
838.891	10.89
841.784	12.6189
844.677	5.19446
847.569	22.505
850.462	23.2688
853.355	21.3784
856.247	24.3862
859.14	23.3381
862.033	33.1744
864.925	23.6034
867.818	29.9804
870.711	39.4818
873.604	0.697632
876.496	11.6191
879.389	2.85986
882.282	31.2152
885.174	9.08679
888.067	13.9033
890.96	26.1426
893.852	13.2771
896.745	30.5088
899.638	17.3645
902.53	16.2216
905.423	24.9087
908.316	16.9036
911.209	19.3439
914.101	14.74
916.994	20.1671
919.887	25.6794
922.779	35.2395
925.672	20.4011
928.565	16.3365
931.457	0.064575
934.35	20.7557
937.243	22.8057
940.136	0.638062
943.028	12.8591
945.921	20.5367
948.814	14.9572
951.706	28.6223
954.599	35.286
957.492	29.0657
960.385	7.17188
963.277	19.5507
966.17	22.8778
969.063	13.9213
971.955	12.931
974.848	8.71918
977.741	42.484
980.633	14.6238
983.526	29.2872
986.419	29.1368
989.312	0.590637
992.204	4.89886
995.097	11.4862
997.99	13.1355
1000.88	28.3872
1003.77	7.034
1006.67	18.3493
1009.56	36.8578
1012.45	13.9203
1015.35	13.2098
1018.24	30.9946
1021.13	27.7602
1024.02	49.559
1026.92	40.6543
1029.81	44.2204
1032.7	14.2125
1035.6	36.9255
1038.49	50.4432
1041.38	42.4856
1044.27	6.81781
1047.17	28.1956
1050.06	4.70075
1052.95	33.2852
1055.84	15.568
1058.74	18.6208
1061.63	33.0989
1064.52	14.7914
1067.41	29.2575
1070.31	4.72833
1073.2	5.09821
1076.09	25.1662
1078.98	10.5403
1081.88	14.2188
1084.77	16.4846
1087.66	27.0758
1090.56	11.9707
1093.45	30.5557
1096.34	17.5818
1099.23	25.9084
1102.13	5.00183
1105.02	31.2228
1107.91	11.2541
1110.81	5.75745
1113.7	2.33258
1116.59	11.8921
1119.48	29.1978
1122.38	17.1427
1125.27	45.4081
1128.16	23.1587
1131.05	26.3953
1133.95	24.9494
1136.84	28.0564
1139.73	5.98486
1142.62	3.51092
1145.52	24.9399
1148.41	40.6289
1151.3	8.42419
1154.19	16.2749
1157.09	35.088
1159.98	59.2593
1162.87	16.4288
1165.77	16.8862
1168.66	50.7186
1171.55	39.7268
1174.44	26.4731
1177.34	26.4162
1180.23	10.1642
1183.12	27.4232
1186.02	10.1219
1188.91	25.0252
1191.8	23.4127
1194.69	28.4154
1197.59	19.522
1200.48	58.8353
1203.37	19.3057
1206.26	25.1976
1209.16	29.7028
1212.05	28.8212
1214.94	46.5991
1217.84	4.89905
1220.73	50.0054
1223.62	21.0291
1226.51	10.3315
