Measurement: Raman, 780 nm, unoriented, Raman Data Processed
Mineral: Carnallite
Rruff sample: R050353
Ideal chemistry: KMgCl_3_6H_2_O
Locality: Strassfurt, Germany
Source: California Institute of Technology
Description: Colorless single crystals and grains associated with halite, sylvite, and anhydrite.
Raman shift (cm-1)	intensity
110.326	0
113.701	179.938
117.075	292.312
120.45	161.406
123.825	880.906
127.2	784.656
130.575	415.25
133.95	28.0312
137.324	560.438
140.699	664
144.074	719.25
147.449	665.656
150.824	742.281
154.198	1055.53
157.573	1433.84
160.948	1333.5
164.323	1581.09
167.698	1993.94
171.072	1905.31
174.447	1495.62
177.822	1204.22
181.197	536.75
184.572	801.625
187.947	1176.66
191.321	1758.97
194.696	1173.12
198.071	1517.38
201.446	1764.25
204.821	1362.69
208.196	1708.78
211.57	1601.22
214.945	2024.09
218.32	1398.44
221.695	978.594
225.07	694.5
228.444	292.625
231.819	208.344
235.194	287.969
238.569	501.656
241.944	14.4062
245.319	471.875
248.693	991
252.068	867.844
255.443	455.25
258.818	204.469
262.193	694.312
265.567	43.6875
268.942	433.812
272.317	992.375
275.692	517.75
279.067	677.312
282.442	776.156
285.816	460.875
289.191	892.562
292.566	365.312
295.941	678.438
299.316	418.312
302.69	191.188
306.065	446.812
309.44	452.875
312.815	1246.19
316.19	514.906
319.565	716.75
322.939	422.453
326.314	506.609
329.689	1139.25
333.064	796.656
336.439	762.906
339.813	216.141
343.188	598.922
346.563	894.062
349.938	1312.64
353.313	654.562
356.688	1158.47
360.062	675.859
363.437	305.609
366.812	69.7344
370.187	308.156
373.562	614.781
376.936	788.922
380.311	515.219
383.686	538.047
387.061	222.25
390.436	385.875
393.81	287.312
397.185	258.844
400.56	740.234
403.935	772.344
407.31	712.266
410.685	783.266
414.059	963.344
417.434	1407.23
420.809	1047.72
424.184	773.641
427.559	494.781
430.933	1278.23
434.308	984.766
437.683	976.125
441.058	528.312
444.433	629.125
447.808	902.484
451.182	69.5
454.557	721.766
457.932	542.797
461.307	1181.02
464.682	1361.48
468.057	1219.92
471.431	999.047
474.806	396.328
478.181	629.484
481.556	768.547
484.931	664.641
488.305	857.469
491.68	567.969
495.055	545.469
498.43	476.172
501.805	319.812
505.18	166.156
508.554	532.734
511.929	727.234
515.304	747.406
518.679	851.141
522.054	635.156
525.428	1028.12
528.803	1278.02
532.178	865.719
535.553	183.219
538.928	103.531
542.303	410.297
545.677	549.344
549.052	641.141
552.427	711.188
555.802	494.719
559.177	632.484
562.551	882.734
565.926	705.141
569.301	766.719
572.676	506.375
576.051	427.812
579.426	610.984
582.8	703.188
586.175	272.438
589.55	569
592.925	484.344
596.3	882.172
599.674	899.906
603.049	234.031
606.424	59.2812
609.799	109.781
613.174	332.625
616.548	210.297
619.923	225.703
623.298	58.4844
626.673	20.9688
630.048	119.688
633.423	334.172
636.797	59.2344
640.172	27.9688
643.547	613.641
646.922	371.312
650.297	505.734
653.672	277.875
657.046	329.875
660.421	703.031
663.796	336.984
667.171	231.078
670.546	376.203
673.92	513.875
677.295	293.578
680.67	759.578
684.045	480.016
687.42	470.562
690.794	237.734
694.169	20.3438
697.544	228.266
700.919	470.703
704.294	133.25
707.669	30.4844
711.043	306.578
714.418	698.797
717.793	638.688
721.168	633.734
724.543	726.391
727.918	448.016
731.292	394.312
734.667	97.8594
738.042	199.094
741.417	382.203
744.792	742.266
748.166	644.422
751.541	527.922
754.916	414.75
758.291	557.422
761.666	646.125
765.04	492.578
768.415	414.891
771.79	282.984
775.165	400.625
778.54	326.047
781.915	388.625
785.289	690.344
788.664	766.359
792.039	279.25
795.414	174.812
798.789	295.281
802.163	173.984
805.538	5.01562
808.913	16.4219
812.288	282.969
815.663	247.703
819.038	511.359
822.412	667.375
825.787	531.625
829.162	461.641
832.537	687.672
835.912	903.594
839.287	852.031
842.661	914.969
846.036	850.18
849.411	970.453
852.786	823.906
856.161	1028.52
859.535	816.766
862.91	607.367
866.285	364.547
869.66	552.555
873.035	21.2891
876.409	282.008
879.784	143.023
883.159	150.562
886.534	206.977
889.909	166.227
893.284	126.531
896.658	102.484
900.033	70.5312
903.408	297.312
906.783	115.68
910.158	251.758
913.533	331.344
916.907	587.742
920.282	891.734
923.657	570.711
927.032	179.906
930.407	329.938
933.781	627.914
937.156	467.961
940.531	619.391
943.906	684.812
947.281	521.43
950.655	570.398
954.03	526.789
957.405	615.852
960.78	344.547
964.155	499.57
967.53	232.844
970.904	161.406
974.279	66.1562
977.654	259.125
981.029	94.9297
984.404	2.73438
987.779	269.828
991.153	141.789
994.528	40.7734
997.903	171.062
1001.28	20.0156
1004.65	228.648
1008.03	162.758
1011.4	117.328
1014.78	395.242
1018.15	468.352
1021.53	571.828
1024.9	742.562
1028.28	852.266
1031.65	839.336
1035.03	589
1038.4	766.664
1041.78	797.367
1045.15	959.5
1048.53	1121.4
1051.9	1380.56
1055.28	890.281
1058.65	1299.38
1062.03	1240.27
1065.4	906.562
1068.77	894.273
1072.15	685.812
1075.52	624.609
1078.9	711.492
1082.27	649.422
1085.65	635.945
1089.02	414.352
1092.4	409.898
1095.77	253.875
1099.15	209.133
1102.52	193.844
1105.9	108.242
1109.27	291.516
1112.65	651.938
1116.02	314.961
1119.4	66.8516
1122.77	24.2891
1126.15	92.7344
1129.52	239.797
1132.9	431.867
1136.27	219.57
1139.64	399.758
1143.02	81.3125
1146.39	473.773
1149.77	651.641
1153.14	569.406
1156.52	350.695
1159.89	452.875
1163.27	453.547
1166.64	719.492
1170.02	573.477
1173.39	675.586
1176.77	601.359
1180.14	710.859
1183.52	605.359
1186.89	728.711
1190.27	558.344
1193.64	544.828
1197.02	692.055
1200.39	857.383
1203.77	568.969
1207.14	658.336
1210.52	547.711
1213.89	407.109
1217.27	596.992
1220.64	457.008
1224.02	513.406
1227.39	231.219
1230.77	427.148
1234.14	355.289
1237.52	237.742
1240.89	236.969
1244.27	5.63281
1247.64	122.75
1251.01	128.352
1254.39	160.289
1257.76	96.7031
1261.14	210.195
1264.51	320.375
1267.89	573.594
1271.26	388.609
1274.64	258.953
1278.01	247.531
1281.39	45.4531
1284.76	288.5
1288.14	254
