Measurement: Raman, 780 nm, unoriented, Raman Data Processed
Mineral: Carrollite
Rruff sample: R130024
Ideal chemistry: Cu^1+^Co^3+^_2_S_4_
Locality: Kisanfu, Katanga, Democratic Republic of the Congo
Source: Isabel Fay
Description: Silver metallic, massive, associated with chalcocite, bornite, digenite and magnesite
Raman shift (cm-1)	intensity
136.123	0
145.765	0.47963
155.407	0.118198
165.05	0.248943
174.692	0.339481
184.334	1.42518
193.977	1.62212
203.619	3.3826
213.261	5.10579
222.904	9.05239
232.546	12.8759
242.188	15.4223
251.831	14.6454
261.473	11.4863
271.115	10.1087
280.758	10.5072
290.4	12.1662
300.042	14.5498
309.685	12.6112
319.327	9.58723
328.969	8.83306
338.612	10.543
348.254	11.0989
357.896	7.64912
367.539	6.71684
377.181	7.67333
386.823	7.10676
396.466	1.64316
406.108	0.202934
415.75	0.317463
425.393	0.048882
435.035	0.128731
444.677	0.447382
454.32	0.164116
463.962	0.022755
473.604	0.265236
483.247	0.11902
492.889	0.289219
502.531	0.479067
512.174	0.782196
521.816	0.954395
531.458	2.36667
541.101	2.02264
550.743	1.23519
560.385	1.33345
570.028	2.01747
579.67	1.22494
589.312	2.0159
598.955	2.50224
608.597	2.33898
618.239	2.48362
627.882	3.08561
637.524	3.54223
647.166	3.95156
656.809	5.17386
666.451	4.76712
676.093	4.74221
685.736	4.71901
695.378	5.20788
705.02	5.64027
714.663	6.10756
724.305	6.91674
733.947	7.06163
743.59	7.56334
753.232	9.17916
762.874	9.19372
772.517	10.3284
782.159	11.1418
791.801	11.9921
801.444	12.5656
811.086	13.8936
820.728	14.8418
830.371	14.8185
840.013	15.6139
849.655	15.0196
859.298	13.8735
868.94	11.9912
878.582	10.9509
888.225	9.04987
897.867	7.09838
907.509	5.75417
917.152	5.41347
926.794	3.73602
936.436	4.33337
946.079	5.03177
955.721	4.28787
965.363	3.7202
975.006	3.38186
984.648	3.2744
994.29	3.02002
1003.93	3.14435
1013.58	3.26048
1023.22	3.33471
1032.86	3.27518
1042.5	2.91032
1052.14	2.71952
1061.79	1.83563
1071.43	1.86494
1081.07	1.23364
1090.71	0.75876
1100.36	0.716572
1110	0.907045
1119.64	0.362488
1129.28	0.325552
1138.92	0.5219
1148.57	0.727085
1158.21	0.06374
1167.85	0.558504
1177.49	0.110052
1187.14	0.129204
1196.78	0.379097
1206.42	0.258537
1216.06	0.797407
1225.71	0.720806
1235.35	0.316847
1244.99	0.372717
1254.63	0.307903
1264.28	0.890377
1273.92	1.06614
1283.56	1.41473
1293.2	2.18516
1302.85	2.545
1312.49	2.98305
1322.13	3.28533
1331.77	3.22932
1341.41	3.91076
1351.06	3.41865
1360.7	3.32341
1370.34	3.85402
1379.98	2.85541
1389.63	2.94054
1399.27	3.10787
1408.91	2.82053
1418.55	3.17768
1428.19	3.07565
1437.84	3.40369
1447.48	2.61001
1457.12	2.58826
1466.77	2.65081
1476.41	2.13927
1486.05	1.76486
1495.69	1.98428
1505.33	2.21267
1514.98	1.61126
1524.62	1.3072
1534.26	1.54481
1543.9	1.52979
1553.55	1.91411
1563.19	1.09454
1572.83	2.05684
1582.47	1.55902
1592.12	1.80848
1601.76	2.07021
1611.4	2.32117
1621.04	1.31699
1630.68	0.938616
1640.33	1.03762
1649.97	1.03869
1659.61	0.728989
1669.25	1.42875
1678.9	1.02748
1688.54	1.2383
1698.18	0.912598
1707.82	0.564312
1717.46	0.638479
1727.11	0.59651
1736.75	0.772751
1746.39	1.04349
1756.04	0.92712
1765.68	0.749958
1775.32	0.702618
1784.96	0.260885
1794.6	0.871035
1804.25	0.064142
1813.89	0.442556
1823.53	0.43045
1833.17	0.15864
1842.82	0.29376
1852.46	0.466433
1862.1	0.240658
1871.74	0.234753
1881.38	0.457699
1891.03	0.81045
1900.67	0.203777
1910.31	0.694908
1919.95	1.1709
1929.6	0.412382
1939.24	0.184017
1948.88	0.398716
1958.52	0.326498
1968.17	1.03858
1977.81	0.290169
1987.45	0.047907
1997.09	0.336096
2006.73	0.212393
2016.38	0.903656
2026.02	0.366774
2035.66	6.1e-05
2045.31	0.271439
2054.95	0.577145
2064.59	0.440504
2074.23	0.020657
2083.87	0.418745
2093.52	0.081004
2103.16	0.478205
2112.8	0.096416
2122.44	0.200982
2132.09	0.591144
2141.73	0.155326
2151.37	0.029637
2161.01	0.430764
2170.66	0.168584
2180.3	0.914758
2189.94	0.124126
2199.58	0.497714
2209.22	0.91368
2218.87	0.369887
2228.51	0.501658
2238.15	0.496341
2247.79	0.342701
2257.44	0.543523
2267.08	0.370402
2276.72	0.473595
2286.36	0.632196
2296.01	0.642087
2305.65	0.605782
2315.29	0.830248
2324.93	1.69537
2334.57	0.079694
2344.22	0.60761
2353.86	0.649901
2363.5	0.683871
2373.14	0.197572
2382.79	0.61386
2392.43	0.578411
2402.07	0.423968
2411.71	0.440674
2421.36	0.316682
2431	0.469022
2440.64	0.596185
2450.28	0.578168
2459.93	0.336267
2469.57	0.058883
2479.21	0.215674
2488.85	0.51176
2498.49	0.768782
2508.14	0.901402
2517.78	0.170032
2527.42	0.094209
2537.06	0.712682
2546.71	0.733322
2556.35	0.7665
2565.99	0.516786
2575.63	0.496836
2585.28	0.682734
2594.92	0.562598
2604.56	0.351208
2614.2	0.303289
2623.84	0.291912
2633.49	0.869616
2643.13	0.242558
2652.77	0.577124
2662.41	0.682643
2672.06	0.065573
2681.7	0.586321
2691.34	0.758402
2700.98	0.379375
2710.63	0.316871
2720.27	0.145375
2729.91	1.38348
2739.55	0.586005
2749.2	0.756658
2758.84	0.585682
2768.48	0.321442
2778.12	0.640518
2787.76	0.436929
2797.41	0.608663
2807.05	0.477556
2816.69	0.570408
2826.33	0.290234
2835.98	0.134962
2845.62	0.837453
2855.26	0.62073
2864.9	0.261447
2874.55	0.470754
2884.19	0.358561
2893.83	0.463461
2903.47	0.455829
2913.11	0.642053
2922.76	0.523457
2932.4	0.064185
2942.04	0.23065
2951.68	0.00087
2961.33	0.343962
2970.97	0.031687
2980.61	0.07904
2990.25	0.35978
2999.9	0.072213
3009.54	0.202351
3019.18	0.438131
3028.82	0.613695
3038.47	0.82777
3048.11	0.587674
3057.75	0.060431
3067.39	0.58656
3077.03	0.18079
3086.68	0.039432
3096.32	0.239457
3105.96	0.067935
3115.6	0.746057
3125.25	0.583574
3134.89	0.534211
3144.53	0.037305
3154.17	0.627311
3163.82	0.277214
3173.46	0.427948
3183.1	0.368419
3192.74	0.696321
3202.39	0.012635
3212.03	0.2958
3221.67	0.333262
3231.31	0.282612
3240.95	0.305667
3250.6	0.324532
3260.24	0.579221
3269.88	0.205048
3279.52	0.617849
3289.17	0.600832
3298.81	0.401813
3308.45	0.498584
3318.09	0.264608
3327.74	0.271474
3337.38	0.054395
3347.02	0.237153
3356.66	0.502922
3366.3	0.508378
3375.95	0.529978
3385.59	0.576747
3395.23	1.05357
3404.87	0.393137
3414.52	0.35245
3424.16	0.174139
3433.8	0.149769
3443.44	0.592319
3453.09	0.097535
