Measurement: Raman, 785 nm, unoriented, Raman Data Processed
Mineral: Caryochroite
Rruff sample: R070008
Ideal chemistry: (Na,Sr)_3_(Fe^3+^,Mg)_10_Ti^4+^_2_Si_12_O_37_(H_2_O,O,OH)_17_
Locality: Umbozero mine, Alluaiv Mt., Lovozero massif, Kola Peninsula, Russia
Source: Michael Scott
Description: Dark brown massive, very fine grained
Raman shift (cm-1)	intensity
205.68	0
208.573	33.2754
211.466	88.8535
214.358	67.5215
217.251	111.255
220.144	96.7891
223.036	152.906
225.929	85.0674
228.822	66.7783
231.715	56.2978
234.607	87.9385
237.5	88.1231
240.393	144.596
243.285	149.129
246.178	154.793
249.071	54.7998
251.964	120.768
254.856	75.8906
257.749	117.27
260.642	165.577
263.534	145.762
266.427	158.639
269.32	116.489
272.212	74.5566
275.105	102.411
277.998	110.809
280.89	254.519
283.783	271.419
286.676	180.066
289.569	236.31
292.461	203.234
295.354	95.8193
298.247	243.803
301.139	77.6562
304.032	117.883
306.925	154.816
309.817	139.176
312.71	154.257
315.603	47.0195
318.496	26.8457
321.388	77.1748
324.281	58.7324
327.174	20.6904
330.066	16.1064
332.959	130.68
335.852	94.8008
338.745	14.6182
341.637	23.2686
344.53	76.8721
347.423	23.3945
350.315	66.3906
353.208	46.5371
356.101	5.91992
358.993	90.583
361.886	64.1973
364.779	37.3984
367.671	42.8438
370.564	30.7812
373.457	155.788
376.35	80.583
379.242	68.3418
382.135	97.8106
385.028	75.126
387.92	98.1162
390.813	168.727
393.706	164.747
396.598	99.5547
399.491	51.6543
402.384	76.001
405.277	74.3691
408.169	38.7353
411.062	126.769
413.955	111.085
416.847	135.815
419.74	99.0615
422.633	134.003
425.526	175.161
428.418	71.8418
431.311	74.3877
434.204	124.1
437.096	11.7744
439.989	46.9141
442.882	27.2275
445.774	68.7949
448.667	79.5293
451.56	36.8516
454.452	16.4902
457.345	13.9121
460.238	17.0176
463.13	87.7148
466.023	68.6094
468.916	13.627
471.809	21.3672
474.701	42.6133
477.594	1.375
480.487	85.1484
483.379	67.8848
486.272	89.1074
489.165	48.1309
492.058	26.5527
494.95	65.7539
497.843	59.9727
500.736	78.5586
503.628	36.7227
506.521	31.3672
509.414	165.607
512.306	90.7227
515.199	87.5801
518.092	205.908
520.985	132.076
523.877	64.1191
526.77	114.402
529.663	225.857
532.555	116.078
535.448	105.459
538.341	177.885
541.233	121.811
544.126	74.3438
547.019	115.488
549.912	65.0273
552.804	145.451
555.697	134.162
558.59	190.07
561.482	219.107
564.375	201.461
567.268	256.922
570.16	227.346
573.053	222.06
575.946	293.598
578.838	211.35
581.731	339.115
584.624	316.898
587.517	301.685
590.409	233.326
593.302	259.434
596.195	335.365
599.087	359.697
601.98	408.637
604.873	318.418
607.765	237.482
610.658	202.889
613.551	260.773
616.443	192.68
619.336	204.082
622.229	158.551
625.122	144.853
628.014	114.006
630.907	155.346
633.8	102.686
636.692	45.0645
639.585	87.1465
642.478	33.4609
645.37	36.2461
648.263	51.6562
651.156	46.7305
654.049	15.6465
656.941	40.9883
659.834	9.67188
662.727	3.03711
665.619	21.543
668.512	46.8086
671.405	23.418
674.298	40.9941
677.19	90.418
680.083	5.12695
682.976	61.6445
685.868	20.6094
688.761	41.9395
691.654	11.6875
694.546	19.2051
697.439	59.9004
700.332	95.3106
703.225	46.5684
706.117	96.7812
709.01	96.5898
711.903	81.1777
714.795	51.2754
717.688	79.7402
720.581	118.457
723.473	37.2227
726.366	9.29297
729.259	77.7949
732.152	11.4668
735.044	34.1289
737.937	112.172
740.83	149.877
743.722	124.07
746.615	145.144
749.508	131.103
752.4	17.9453
755.293	125.803
758.186	95.0527
761.078	76.1836
763.971	161.144
766.864	139.164
769.757	151.141
772.649	98.0938
775.542	20.6348
778.435	126.613
781.327	53.4023
784.22	184.897
787.113	92.3496
790.005	105.535
792.898	143.918
795.791	12.0527
798.684	80.9629
801.576	100.082
804.469	65.834
807.362	86.2519
810.254	63.0977
813.147	40.1367
816.04	188.014
818.933	116.057
821.825	131.768
824.718	70.3379
827.611	65.3379
830.503	34.709
833.396	57.7012
836.289	198.918
839.181	84.3438
842.074	45.8496
844.967	80.709
847.86	5.19141
850.752	98.2559
853.645	4.3418
856.538	83.8535
859.43	22.1895
862.323	151.133
865.216	66.7871
868.108	68.4453
871.001	94.6641
873.894	46.9863
876.786	8.46094
879.679	186.928
882.572	121.578
885.465	114.361
888.357	124.055
891.25	53.9453
894.143	35.625
897.035	133.537
899.928	134.572
902.821	52.0625
905.713	122.717
908.606	19.8965
911.499	133.852
914.391	65.5606
917.284	82.834
920.177	75.2773
923.07	87.4414
925.962	93.7754
928.855	120.379
931.748	47.668
934.64	164.176
937.533	164.016
940.426	63.7266
943.318	55.1152
946.211	48.3789
949.104	94.4688
951.997	92.707
954.889	90.8906
957.782	68.7305
960.675	80.2129
963.567	63.668
966.46	141.973
969.353	38.2637
972.245	145.943
975.138	48.9297
978.031	75.5254
980.924	50.3438
983.816	74.7383
986.709	30.75
989.602	49.1875
992.494	65.4961
995.387	113.459
998.28	107.049
1001.17	34.9004
1004.07	167.312
1006.96	41.9336
1009.85	12.1445
1012.74	71.916
1015.64	73.8027
1018.53	4.62695
1021.42	2.65234
1024.31	102.951
1027.21	80.3379
1030.1	39.1875
1032.99	23.248
1035.88	29.6055
1038.78	20.6094
1041.67	75.3711
1044.56	31.0352
1047.46	142.316
1050.35	24.2754
1053.24	12.2637
1056.13	86.8555
1059.03	120.111
1061.92	69.1406
1064.81	81.6211
1067.7	137.801
1070.6	60.3145
1073.49	133.785
1076.38	68.3613
1079.28	103.619
1082.17	12.4043
1085.06	84.709
1087.95	9.55078
1090.85	57.4102
1093.74	98.0996
1096.63	109.969
1099.52	9.16602
1102.42	69.791
1105.31	33.7852
1108.2	26.5918
1111.1	133.232
1113.99	116.277
1116.88	81.582
1119.77	124.383
1122.67	101.519
1125.56	93.7324
1128.45	146.519
1131.34	193.574
1134.24	94.541
1137.13	93.8633
1140.02	19.1973
1142.91	81.7422
1145.81	119.228
1148.7	33.8281
1151.59	27.7754
1154.49	24.9844
1157.38	132.711
1160.27	24.8789
1163.16	70.6172
1166.06	41.084
1168.95	76.4844
1171.84	104.644
1174.73	39.0781
1177.63	86.5664
1180.52	34.5234
1183.41	36.5
1186.31	75.4981
1189.2	9.03516
1192.09	81.6914
1194.98	189.898
1197.88	68.3457
1200.77	52.9043
1203.66	101.566
1206.55	33.7539
1209.45	153.949
1212.34	57.6641
1215.23	37.748
1218.12	171.879
1221.02	3.68164
1223.91	68.916
1226.8	118.715
1229.7	89.4121
1232.59	131.715
1235.48	168.762
1238.37	132.871
1241.27	130.977
1244.16	66.0742
