Measurement: Raman, 532 nm, unoriented, Raman Data Processed
Mineral: Caryochroite
Rruff sample: R070008
Ideal chemistry: (Na,Sr)_3_(Fe^3+^,Mg)_10_Ti^4+^_2_Si_12_O_37_(H_2_O,O,OH)_17_
Locality: Umbozero mine, Alluaiv Mt., Lovozero massif, Kola Peninsula, Russia
Source: Michael Scott
Description: Dark brown massive, very fine grained
Raman shift (cm-1)	intensity
161.271	0
164.646	91.0498
168.02	41.7383
171.395	9.44775
174.77	45.4072
178.145	0.218262
181.52	10.5259
184.895	46.8096
188.269	109.256
191.644	85.0908
195.019	124.944
198.394	65.3926
201.769	147.272
205.143	27.5288
208.518	193.167
211.893	148.829
215.268	43.8662
218.643	12.707
222.018	147.381
225.392	56.4775
228.767	52.8511
232.142	60.5557
235.517	41.2178
238.892	42.6523
242.266	15.876
245.641	34.6006
249.016	4.21631
252.391	65.9912
255.766	115.575
259.14	208.013
262.515	224.414
265.89	181.137
269.265	196.709
272.64	195.458
276.015	206.022
279.389	155.701
282.764	273.463
286.139	252.509
289.514	114.138
292.889	229.992
296.263	180.38
299.638	141.397
303.013	136.248
306.388	77.5864
309.763	111.059
313.137	206.076
316.512	114.376
319.887	75.8345
323.262	52.5425
326.637	99.5488
330.012	161.509
333.386	156.061
336.761	7.96045
340.136	106.63
343.511	129.841
346.886	90.1548
350.26	8.56494
353.635	4.55127
357.01	0.893066
360.385	61.2134
363.76	71.9165
367.135	65.0576
370.509	84.4536
373.884	104.326
377.259	143.988
380.634	103.963
384.009	89.1079
387.383	77.0772
390.758	41.4888
394.133	13.3599
397.508	32.7788
400.883	29.6079
404.257	68.9639
407.632	67.4609
411.007	69.6035
414.382	104.703
417.757	11.4233
421.132	82.0591
424.506	48.916
427.881	48.2852
431.256	69.9097
434.631	15.1499
438.006	23.0898
441.38	82.3843
444.755	23.5352
448.13	67.8208
451.505	57.0352
454.88	34.4277
458.255	59.9424
461.629	111.518
465.004	35.1855
468.379	119.396
471.754	99.8179
475.129	44.8237
478.503	62.3188
481.878	148.173
485.253	56.562
488.628	85.6636
492.003	65.0317
495.377	28.4145
498.752	13.6406
502.127	47.2895
505.502	33.2969
508.877	36.4468
512.251	45.8257
515.626	40.6841
519.001	121.709
522.376	16.1821
525.751	88.6816
529.126	106.732
532.5	119.275
535.875	118.203
539.25	166.795
542.625	42.8603
546	119.767
549.375	142.378
552.749	158.582
556.124	126.973
559.499	198.017
562.874	146.066
566.249	225.165
569.623	239.322
572.998	139.99
576.373	243.87
579.748	173.226
583.123	168.227
586.497	163.374
589.872	180.477
593.247	169.3
596.622	190.114
599.997	142.191
603.371	181.625
606.746	80.7402
610.121	53.7105
613.496	80.9888
616.871	131.175
620.245	76.3765
623.62	72.5098
626.995	42.3081
630.37	107.176
633.745	42.4082
637.12	90.4165
640.494	87.7481
643.869	33.1445
647.244	109.781
650.619	50.0884
653.994	57.1738
657.369	125.495
660.743	111.648
664.118	103.362
667.493	92.5674
670.868	49.8838
674.243	161.196
677.617	120.377
680.992	155.612
684.367	34.2315
687.742	35.6743
691.117	29.4868
694.491	90.1875
697.866	88.084
701.241	102.264
704.616	162.211
707.991	105.544
711.365	5.92578
714.74	93.9648
718.115	119.534
721.49	87.2598
724.865	116.769
728.24	114.353
731.614	4.76953
734.989	127.314
738.364	90.731
741.739	106.544
745.114	79.0903
748.489	44.9526
751.863	106.322
755.238	63.8721
758.613	115.502
761.988	103.109
765.362	15.8569
768.737	100.541
772.112	53.4575
775.487	175.612
778.862	55.271
782.237	44.3892
785.611	87.0356
788.986	36.0806
792.361	109.395
795.736	85.6279
799.111	140.655
802.486	65.8301
805.86	2.95459
809.235	87.2446
812.61	69.0181
815.985	75.0918
819.36	131.107
822.734	65.7651
826.109	64.5068
829.484	38.831
832.859	73.355
836.234	102.513
839.609	55.6294
842.983	83.106
846.358	10.4443
849.733	167.127
853.108	114.828
856.482	23.3701
859.857	57.9351
863.232	14.1606
866.607	58.6924
869.982	42.9219
873.357	7.396
876.731	43.9619
880.106	172.348
883.481	21.0449
886.856	88.2202
890.231	67.0176
893.606	87.1807
896.98	9.35449
900.355	42.4238
903.73	56.8286
907.105	88.6113
910.48	129.935
913.854	131.448
917.229	111.86
920.604	62.4048
923.979	69.7978
927.354	72.4966
930.728	40.6406
934.103	4.84912
937.478	74.8125
940.853	90.3813
944.228	62.3262
947.602	67.7095
950.977	93.8296
954.352	39.8369
957.727	93.5073
961.102	133.088
964.477	14.6821
967.851	103.218
971.226	33.7661
974.601	44.1289
977.976	133.828
981.351	65.9131
984.726	16.5781
988.1	79.5449
991.475	112.344
994.85	78.5928
998.225	115.548
1001.6	13.2124
1004.97	61.1113
1008.35	72.0703
1011.72	9.37012
1015.1	151.866
1018.47	10.9058
1021.85	102.42
1025.22	45.3018
1028.6	103.468
1031.97	116.666
1035.35	0.618164
1038.72	75.6846
1042.1	115.427
1045.47	23.0513
1048.85	79.8091
1052.22	9.24219
1055.6	68.4702
1058.97	39.8369
1062.35	97.541
1065.72	132.242
1069.1	73.0361
1072.47	143.624
1075.85	123.011
1079.22	3.16211
1082.6	19.1211
1085.97	0.794434
1089.35	59.0347
1092.72	39.5
1096.09	99.0835
1099.47	61.6641
1102.84	73.0391
1106.22	75.939
1109.59	96.9639
1112.97	19.4565
1116.34	100.008
1119.72	50.856
1123.09	88.1655
1126.47	74.5059
1129.84	40.4067
1133.22	13.1187
1136.59	118.595
1139.97	129.852
1143.34	117.27
1146.72	24.1157
1150.09	95.0762
1153.47	81.0723
1156.84	68.0293
1160.22	11.5781
1163.59	109.106
1166.96	91.1162
1170.34	24.7241
1173.71	82.7827
1177.09	26.3604
1180.46	138.579
1183.84	17.4019
1187.21	71.5024
1190.59	37.2231
1193.96	96.7163
1197.34	105.648
1200.71	86.6221
1204.09	70.2705
1207.46	114.226
1210.84	107.571
1214.21	50.9224
1217.59	52.2412
1220.96	112.272
1224.34	44.3066
1227.71	53.5952
1231.09	103.961
1234.46	102.665
1237.84	146.01
1241.21	142.958
1244.59	15.9365
1247.96	122.264
1251.34	74.6587
1254.71	49.3687
1258.09	92.8877
1261.46	156.386
1264.84	108.382
1268.21	56.0015
1271.59	60.8848
1274.96	143.677
1278.33	57.478
1281.71	52.187
1285.08	97.479
1288.46	39.169
1291.83	109.707
1295.21	199.168
1298.58	91.5332
1301.96	12.0732
1305.33	159.694
1308.71	72.4561
1312.08	125.928
1315.46	14.853
1318.83	0
