Measurement: Raman, 780 nm, unoriented, Raman Data Processed
Mineral: Cavansite
Rruff sample: R050400
Ideal chemistry: CaV^4+^OSi_4_O_10_4H_2_O
Locality: Poona, India
Source: Eugene Schlepp
Description: Spray of blue crystals
Measured chemistry: (Ca_0.99_Mg_0.01_)_Σ=1_(V^4+^_1.00_O)Si_4.00_O_10_·4H_2_O
Raman shift (cm-1)	intensity
121.45	0
124.343	1.79468
127.236	1.91333
130.129	8.52246
133.021	13.2849
135.914	11.0784
138.807	29.5076
141.699	22.2197
144.592	6.50293
147.485	16.759
150.377	14.7512
153.27	12.1184
156.163	25.7398
159.055	17.1689
161.948	25.8145
164.841	16.1482
167.734	12.2053
170.626	4.40918
173.519	2.72583
176.412	2.31372
179.304	3.85913
182.197	5.74097
185.09	21.6389
187.982	24.3735
190.875	43.2439
193.768	47.8081
196.661	57.4529
199.553	64.2866
202.446	76.8057
205.339	70.8208
208.231	64.6699
211.124	34.418
214.017	38.6753
216.91	30.6914
219.802	17.1523
222.695	19.3076
225.588	31.4929
228.48	38.1162
231.373	49.3999
234.266	41.9348
237.158	48.4131
240.051	45.9355
242.944	55.0352
245.837	67.6916
248.729	65.8787
251.622	76.7524
254.515	59.6309
257.407	45.2747
260.3	31.0635
263.193	11.8181
266.085	0.608398
268.978	4.40332
271.871	0.041748
274.764	7.67139
277.656	1.78564
280.549	2.31519
283.442	5.87085
286.334	15.874
289.227	23.156
292.12	16.1965
295.012	20.26
297.905	12.6467
300.798	21.1555
303.69	18.5659
306.583	25.8909
309.476	16.5117
312.369	20.6487
315.261	44.479
318.154	50.0481
321.047	42.0579
323.939	67.7617
326.832	64.668
329.725	69.6213
332.618	80.0713
335.51	88.5562
338.403	88.0178
341.296	87.5391
344.188	95.5439
347.081	90.3462
349.974	91.939
352.866	98.6704
355.759	86.6951
358.652	92.3933
361.545	100.68
364.437	98.5454
367.33	83.7969
370.223	88.5269
373.115	67.2749
376.008	55.7861
378.901	55.0588
381.793	37.0725
384.686	30.6399
387.579	18.2856
390.471	12.9763
393.364	10.8784
396.257	8.83081
399.15	3.12915
402.042	16.48
404.935	2.69336
407.828	2.02783
410.72	2.36035
413.613	3.4458
416.506	0.233154
419.399	0.549316
422.291	22.6003
425.184	20.0342
428.077	9.28027
430.969	11.0178
433.862	14.0977
436.755	2.07959
439.647	9.53882
442.54	3.42212
445.433	10.9031
448.325	1.27197
451.218	15.7451
454.111	2.5625
457.004	2.03906
459.896	9.34253
462.789	12.8831
465.682	11.6111
468.574	18.8889
471.467	27.4573
474.36	15.7178
477.252	21.0745
480.145	17.5269
483.038	35.7678
485.931	25.0549
488.823	25.072
491.716	11.3511
494.609	14.6975
497.501	19.5022
500.394	17.2956
503.287	1.72607
506.18	15.7095
509.072	10.5635
511.965	3.62842
514.858	7.85254
517.75	13.7324
520.643	8.36865
523.536	9.45654
526.428	3.28467
529.321	30.1743
532.214	2.90576
535.106	1.67285
537.999	16.0557
540.892	22.0391
543.785	23.917
546.677	9.83252
549.57	1.61133
552.463	12.0122
555.355	13.3369
558.248	10.1294
561.141	13.1304
564.034	1.72705
566.926	0.98291
569.819	29.4756
572.712	19.2407
575.604	18.2637
578.497	25.9844
581.39	12.019
584.282	9.76367
587.175	23.5093
590.068	30.0391
592.96	29.7705
595.853	5.44238
598.746	39.1304
601.639	7.68896
604.531	9.93945
607.424	13.377
610.317	1.17285
613.209	14.6665
616.102	0.646484
618.995	23.1977
621.888	8.85938
624.78	13.5107
627.673	12.6528
630.566	4.48096
633.458	11.1641
636.351	15.0625
639.244	14.4517
642.136	18.5215
645.029	15.5459
647.922	27.6064
650.814	19.145
653.707	20.4658
656.6	25.1265
659.493	17.46
662.385	17.8774
665.278	22.2051
668.171	36.5015
671.063	18.102
673.956	16.7935
676.849	17.3589
679.741	4.22217
682.634	0.501953
685.527	7.47852
688.42	12.2749
691.312	6.4624
694.205	18.0415
697.098	0.386719
699.99	24.7109
702.883	30.438
705.776	3.51904
708.668	3.32519
711.561	4.98731
714.454	3.99658
717.347	5.61865
720.239	12.0952
723.132	0.804199
726.025	8.20215
728.917	3.5332
731.81	14.8408
734.703	12.1963
737.596	12.6602
740.488	2.80615
743.381	24.9399
746.274	20.1143
749.166	21.4526
752.059	16.0884
754.952	22.9849
757.844	5.78955
760.737	8.07861
763.63	8.54785
766.523	8.41016
769.415	0.724609
772.308	6.60986
775.201	5.88867
778.093	1.24365
780.986	0.141602
783.879	6.06104
786.771	4.95947
789.664	13.5825
792.557	3.71387
795.449	17.7861
798.342	1.62451
801.235	20.8052
804.128	5.24316
807.02	29.8213
809.913	29.4048
812.806	33.2461
815.698	24.1094
818.591	42.8682
821.484	55.2949
824.376	56.6543
827.269	68.0859
830.162	96.6152
833.055	119.105
835.947	127.82
838.84	134.521
841.733	143.111
844.625	135.419
847.518	145.171
850.411	149.798
853.303	164.627
856.196	155.653
859.089	152.773
861.982	172.892
864.874	161.692
867.767	162.383
870.66	153.065
873.552	142.918
876.445	138.223
879.338	115.879
882.231	111.818
885.123	113.08
888.016	100.196
890.909	81.3306
893.801	86.5996
896.694	87.3911
899.587	96.3066
902.479	82.4492
905.372	89.1118
908.265	101.419
911.158	118.082
914.05	141.358
916.943	149.441
919.836	125.749
922.728	125.001
925.621	106.195
928.514	92.001
931.406	71.6787
934.299	49.1855
937.192	32.8911
940.084	24.0342
942.977	25.7949
945.87	14.4385
948.763	7.04199
951.655	0.259277
954.548	2.15088
957.441	5.52295
960.333	2.0918
963.226	4.24365
966.119	10.9062
969.011	0.706055
971.904	12.8545
974.797	7.30273
977.689	6.63086
980.582	10.2153
983.475	22.3516
986.368	33.7778
989.26	52.352
992.153	33.832
995.046	47.7134
997.938	47.2456
1000.83	33.668
1003.72	4.68066
1006.62	0.90918
1009.51	10.0127
1012.4	9.9375
1015.29	23.9824
1018.19	26.3965
1021.08	23.5039
1023.97	22.5811
1026.87	45.1973
1029.76	29.0781
1032.65	18.7656
1035.54	41.7451
1038.44	41.5684
1041.33	26.834
1044.22	27.8311
1047.11	35.2109
1050.01	32.8184
1052.9	33.5918
1055.79	42.1768
1058.68	60.3945
1061.58	45.1914
1064.47	60.877
1067.36	26.5352
1070.26	46.8574
1073.15	54.2656
1076.04	46.8828
1078.93	34.5127
1081.83	57.3428
1084.72	43.0381
1087.61	31.8926
1090.51	31.9814
1093.4	22.0205
1096.29	32.9102
1099.18	40.4756
1102.08	16.7402
1104.97	10.9102
1107.86	4.4668
1110.75	8.92676
1113.65	9.53125
1116.54	4.22461
1119.43	16.7227
1122.32	16.9062
1125.22	27.8633
1128.11	4.55566
1131	19.2568
1133.89	4.07129
1136.79	19.3643
1139.68	29.1406
1142.57	16.791
1145.47	4.41602
1148.36	14.9746
1151.25	25.6201
1154.14	32.1191
1157.04	42.793
1159.93	43.7334
1162.82	35.9971
1165.71	19.0664
1168.61	38.6074
1171.5	43.2871
1174.39	55.8018
1177.29	56.0234
1180.18	66.8252
1183.07	47.8164
1185.96	66.1758
1188.86	40.5459
1191.75	43.5928
1194.64	48.874
1197.54	38.6953
1200.43	21.5273
1203.32	49.4756
1206.21	51.7295
1209.11	17.9756
1212	15.416
1214.89	9.04785
1217.78	36.1934
1220.68	3.7041
1223.57	1.89648
1226.46	19.0137
1229.35	33.4131
1232.25	13.0713
1235.14	14.8428
1238.03	27.127
1240.92	16.1738
1243.82	27.2295
1246.71	26.8477
1249.6	36.6543
1252.5	27.5068
1255.39	15.0527
1258.28	26.2188
1261.17	12.7988
1264.07	8.91504
1266.96	30.332
1269.85	32.7978
1272.74	21.5244
1275.64	16.123
