Measurement: Raman, 780 nm, unoriented, Raman Data RAW
Mineral: Cebaite-(Ce)
Rruff sample: R060248
Ideal chemistry: Ba_3_Ce_2_(CO_3_)_5_F_2_
Locality: Baiyun-Obo mine, Inner Mongolia, China
Source: William W. Pinch
Description: Gemmy yellow to orange-yellow massive; some cleavage evident, associated with green aegirine
Measured chemistry: (Ba_2.95_Sr_0.02_Ca_0.01_)_Σ=2.98_(Ce_0.98_La_0.60_Nd_0.27_Pr_0.10_)_Σ=1.95_(CO_3_)_5.01_F_2.16_
Raman shift (cm-1)	intensity
91.181	0
94.5558	2630.4
97.9306	2545.66
101.305	2220.61
104.68	2394.21
108.055	2518.65
111.43	2367.33
114.805	2362.5
118.18	2640.08
121.554	2721.65
124.929	3002.87
128.304	2775.54
131.679	2896.02
135.054	3400
138.428	3345.7
141.803	3665.22
145.178	3970.86
148.553	4189.52
151.928	4557.23
155.303	4909.59
158.677	5249.42
162.052	6014.77
165.427	6616.87
168.802	6878.84
172.177	7366.68
175.551	7880.96
178.926	8527
182.301	8716.95
185.676	9210.75
189.051	9684.9
192.425	9897.64
195.8	10330.8
199.175	10861.7
202.55	11447.7
205.925	12120.1
209.3	13008
212.674	14250.3
216.049	15232.1
219.424	16746.8
222.799	18012
226.174	19816.8
229.548	21468.2
232.923	23585.4
236.298	25420.8
239.673	27237.5
243.048	28775.4
246.423	30384.4
249.797	31929.6
253.172	33210.4
256.547	33684.4
259.922	33974.2
263.297	34284.6
266.671	34604.4
270.046	34335.7
273.421	33926.6
276.796	33206.8
280.171	32596.6
283.546	31705.7
286.92	30448.1
290.295	29085.1
293.67	27561.4
297.045	25559.6
300.42	23852.5
303.794	22400
307.169	21016.6
310.544	19621.5
313.919	18178
317.294	17006.5
320.668	16147
324.043	15375.3
327.418	14611.3
330.793	14173
334.168	13854.8
337.543	13652.9
340.917	12882.4
344.292	12952.5
347.667	12739.1
351.042	12664.2
354.417	12533.3
357.791	12461.6
361.166	12400.6
364.541	12522
367.916	12479.6
371.291	11997.6
374.666	12346.8
378.04	12258.8
381.415	12344.7
384.79	12087.6
388.165	12169
391.54	12171.1
394.914	12413.4
398.289	12419.4
401.664	12415.3
405.039	12554.1
408.414	12725.8
411.789	12751.6
415.163	13104.3
418.538	13134.5
421.913	13372.4
425.288	13538.5
428.663	13826.3
432.038	13979.4
435.412	14204.3
438.787	14478.6
442.162	14537
445.537	14945.7
448.912	15014.9
452.286	15323.8
455.661	15082.5
459.036	15623.2
462.411	15839
465.786	15737.8
469.161	15966
472.535	15971.2
475.91	15937.5
479.285	15701
482.66	15547.7
486.034	15989.9
489.409	15773.1
492.784	15770.9
496.159	15845.4
499.534	15819.2
502.909	15565.9
506.283	15447
509.658	15579.9
513.033	15553.1
516.408	15581.3
519.783	15624.8
523.158	15705.8
526.532	15765.6
529.907	15664.9
533.282	15691.9
536.657	15659.6
540.032	15763.8
543.406	15637.8
546.781	15730.2
550.156	15809.4
553.531	15669.6
556.906	15600.6
560.28	15784.8
563.655	15512.4
567.03	15502.8
570.405	15917.4
573.78	15906.4
577.155	15942.6
580.529	16008.4
583.904	15969.8
587.279	16049.7
590.654	15940.7
594.029	15954.9
597.404	15718.3
600.778	15477
604.153	15115.9
607.528	14611.6
610.903	14466.6
614.278	14189.9
617.652	13904.7
621.027	13543.9
624.402	13125.5
627.777	12947.7
631.152	12651.2
634.527	12310.6
637.901	12018.4
641.276	12031.4
644.651	11834.9
648.026	11721.6
651.401	11294.5
654.775	11138.7
658.15	10749.5
661.525	10441.4
664.9	9976.53
668.275	9613.31
671.649	9259.84
675.024	8475.61
678.399	8174.71
681.774	7759.75
685.149	7460.51
688.524	7107.06
691.898	6594.65
695.273	6522.19
698.648	6077.8
702.023	6005.65
705.398	5675.43
708.773	5561.4
712.147	5059.25
715.522	5074.56
718.897	4975.86
722.272	4532.1
725.646	4583.64
729.021	4328.1
732.396	4029.11
735.771	4159.94
739.146	4104.35
742.521	3973.21
745.895	3939.51
749.27	3857.55
752.645	3793.98
756.02	3400.68
759.395	3433.25
762.769	3582.32
766.144	3452.55
769.519	3169.57
772.894	3106.43
776.269	3145.54
779.644	3140.76
783.018	3022.14
786.393	3074.01
789.768	2920.98
793.143	2799.37
796.518	2776.34
799.893	2883.54
803.267	2831.55
806.642	2920.46
810.017	2759.97
813.392	2485.5
816.767	2584.61
820.141	2819.54
823.516	2693.65
826.891	2537.36
830.266	2680.81
833.641	2379.92
837.015	2581.3
840.39	2582.89
843.765	2624.3
847.14	2637.88
850.515	2539.38
853.89	2549.2
857.264	2587.99
860.639	2475.1
864.014	2525.06
867.389	2295.13
870.764	2515.59
874.139	2482.33
877.513	2426.01
880.888	2537.51
884.263	2541
887.638	2584.06
891.013	2566.2
894.387	2711.7
897.762	2593.75
901.137	2750.34
904.512	2588.3
907.887	2705.11
911.261	2649.17
914.636	2680.59
918.011	2836.01
921.386	2651.91
924.761	2708.69
928.136	2607.84
931.51	2942.45
934.885	3113.84
938.26	3108.7
941.635	3148.09
945.01	3094.63
948.385	3076.92
951.759	3117.02
955.134	3426.53
958.509	3544.56
961.884	3559.9
965.259	3661.33
968.633	3595.23
972.008	3844.96
975.383	4096.47
978.758	4291.93
982.133	4533.17
985.507	4627.15
988.882	4794.56
992.257	4785.9
995.632	5161.98
999.007	5242.79
1002.38	5594.98
1005.76	5728.12
1009.13	5822.41
1012.51	6174.15
1015.88	6526.69
1019.26	6958.17
1022.63	7193.99
1026.01	7731.18
1029.38	8040.94
1032.76	8238.7
1036.13	8912.32
1039.51	9482.45
1042.88	9953.28
1046.25	10492.2
1049.63	10726.1
1053	11323.8
1056.38	12137.3
1059.75	12925.4
1063.13	13432.3
1066.5	14113.2
1069.88	14823.8
1073.25	15611.2
1076.63	16431.1
1080	17344.8
1083.38	18403.2
1086.75	19215.7
1090.13	19882.6
1093.5	20620.7
1096.88	21399.9
1100.25	22233.5
1103.63	23187.8
1107	24014.5
1110.38	25128.8
1113.75	25705.1
1117.12	26831.6
1120.5	27762.5
1123.88	28556
1127.25	29786
1130.62	30978.5
1134	32335.6
1137.37	33429.3
1140.75	34605.4
1144.12	35544.7
1147.5	36962.8
1150.87	38092
1154.25	39835.7
1157.62	41064.5
1161	42344.5
1164.37	44464.1
1167.75	46560.3
1171.12	48815.2
1174.5	51473
1177.87	54132
1181.25	57440.8
1184.62	60569.5
1188	64141.3
1191.37	68148.2
1194.75	72699.9
1198.12	77797.7
1201.5	82755.2
1204.87	88664.6
1208.24	94893.3
1211.62	102384
1214.99	111506
1218.37	122624
1221.74	135132
1225.12	150944
1228.49	169670
1231.87	192552
1235.24	220444
1238.62	255866
1241.99	298417
1245.37	352632
1248.74	416720
1252.12	489178
1255.49	560648
1258.87	619596
1262.24	654436
1265.62	655134
1268.99	626048
1272.37	583055
1275.74	536444
1279.12	492044
1282.49	444664
