Measurement: Raman, 780 nm, unoriented, Raman Data Processed
Mineral: Cerite-(CeCa)
Rruff sample: R130614
Ideal chemistry: (Ce^3+^_7_Ca_2_)[box]Mg(SiO_4_)_3_(SiO_3_OH)_4_(OH)_3_
Locality: Mont Saint-Hilaire, Rouville County, Quebec, Canada
Source: Don Doell
Description: Hexagonal platy pink crystals, associated with catapleiite and aegirine. The color is dependent upon light source.
Raman shift (cm-1)	intensity
100.117	0
103.492	28.5625
106.867	589.656
110.242	1148.38
113.617	2044.66
116.992	2312
120.366	3796.56
123.741	5064.62
127.116	5968.06
130.491	7168.72
133.865	8697.53
137.24	9756.88
140.615	11087.5
143.99	12601.8
147.365	14417.7
150.74	15910.9
154.114	16616.2
157.489	17439.5
160.864	17938.4
164.239	17845.4
167.614	17517.3
170.988	17330.3
174.363	17662.8
177.738	16928.1
181.113	16631.2
184.488	16073.6
187.863	15406.9
191.237	14496
194.612	13103.9
197.987	12287.5
201.362	11875
204.737	11273
208.112	10012.9
211.486	9175.16
214.861	8431.16
218.236	7830.22
221.611	7056.62
224.986	6189.97
228.36	5181.56
231.735	4497.66
235.11	3708.47
238.485	2481.19
241.86	1697.78
245.234	1285.44
248.609	412.406
251.984	194.438
255.359	440.719
258.734	721.375
262.109	680.125
265.483	377
268.858	89.9688
272.233	867.219
275.608	2476.41
278.983	3948.22
282.358	5438.75
285.732	7400.75
289.107	9020.97
292.482	11299.9
295.857	13641.5
299.232	15827
302.606	18238.5
305.981	20347
309.356	22028.6
312.731	23821.6
316.106	25152.2
319.481	26210.2
322.855	25977.1
326.23	25687.6
329.605	24532.4
332.98	22751.1
336.355	20252.4
339.729	17387.8
343.104	14502.1
346.479	12143.8
349.854	9292.62
353.229	6730.77
356.603	4271.47
359.978	2349.92
363.353	891.625
366.728	574.781
370.103	594.453
373.478	512.641
376.852	744.172
380.227	55.0469
383.602	401.547
386.977	785.703
390.352	1489.53
393.726	2010.41
397.101	2105.5
400.476	2582.97
403.851	2937.09
407.226	3057.47
410.601	3181.59
413.975	3525.91
417.35	4032.69
420.725	4468.22
424.1	4676.31
427.475	5123.03
430.849	4940.47
434.224	4864.53
437.599	5166.53
440.974	6019.78
444.349	6057.03
447.724	6129.56
451.098	6295.44
454.473	6692.69
457.848	7129.28
461.223	6921.5
464.598	5917.69
467.972	5531.56
471.347	5504.75
474.722	5016.16
478.097	4500.28
481.472	3774.34
484.846	3137.91
488.221	2816.84
491.596	2945.06
494.971	2249.72
498.346	1469.34
501.721	1332.84
505.095	1260.97
508.47	1118.53
511.845	1041.28
515.22	651.312
518.595	1074.41
521.97	563.688
525.344	842.625
528.719	933.125
532.094	875.812
535.469	926.438
538.844	970.438
542.218	1225.59
545.593	1190.78
548.968	1082.81
552.343	455.688
555.718	31.5938
559.092	315.5
562.467	393.062
565.842	7.75
569.217	156.781
572.592	343.844
575.967	366.031
579.341	461.406
582.716	1040.56
586.091	354.219
589.466	213.406
592.841	3.28125
596.216	36.4062
599.59	10.8125
602.965	536.844
606.34	243.688
609.715	14.1875
613.09	172.562
616.464	9.15625
619.839	427
623.214	530.938
626.589	729.375
629.964	1105.72
633.338	1567.97
636.713	1595.88
640.088	1253.53
643.463	756.656
646.838	740.5
650.213	553.188
653.587	703.938
656.962	866.188
660.337	363.125
663.712	424.938
667.087	608.438
670.462	269.656
673.836	260.375
677.211	668.844
680.586	113.438
683.961	148.844
687.336	38.1875
690.71	602.5
694.085	398.219
697.46	419.875
700.835	102.625
704.21	369.375
707.585	290.094
710.959	843.062
714.334	533.125
717.709	502.188
721.084	405.688
724.459	443.625
727.833	803.781
731.208	591.469
734.583	694.75
737.958	593.281
741.333	899.625
744.707	239.938
748.082	281.719
751.457	248.969
754.832	20.625
758.207	365.062
761.582	565.875
764.956	523.969
768.331	248.25
771.706	68.0312
775.081	110
778.456	190.688
781.83	24.2188
785.205	227.375
788.58	630.594
791.955	427.906
795.33	352.875
798.705	630.906
802.079	454.281
805.454	1659.38
808.829	1407.06
812.204	1312.12
815.579	1351.28
818.953	1345.5
822.328	1321.59
825.703	1527.69
829.078	1051.56
832.453	1566.66
835.827	2207.31
839.202	2482.5
842.577	2447.72
845.952	2321.84
849.327	2582.09
852.702	2593.91
856.076	2870.5
859.451	2776.5
862.826	2401.06
866.201	2232.97
869.576	2419.03
872.951	2001.91
876.325	1038.81
879.7	1220.22
883.075	1434.69
886.45	976.5
889.825	749.75
893.199	19.5938
896.574	205.625
899.949	619.406
903.324	713.312
906.699	542.094
910.073	413.75
913.448	136.031
916.823	37.6562
920.198	291.5
923.573	120.062
926.948	411.312
930.322	572.875
933.697	97.5625
937.072	104.656
940.447	74.0938
943.822	87.0312
947.197	5.09375
950.571	21.625
953.946	179.406
957.321	467.062
960.696	49.8438
964.071	80.9062
967.445	204.219
970.82	142.594
974.195	39.5938
977.57	276.531
980.945	280.188
984.319	86.4062
987.694	359.062
991.069	584.031
994.444	500.5
997.819	690.5
1001.19	373.156
1004.57	407.875
1007.94	276.375
1011.32	726.094
1014.69	980.281
1018.07	696.281
1021.44	669.25
1024.82	872.219
1028.19	1308.47
1031.57	1406.5
1034.94	1672.84
1038.32	1215
1041.69	1517.97
1045.07	1442.06
1048.44	1813.06
1051.82	2057.81
1055.19	2129.38
1058.57	2808.31
1061.94	2611.22
1065.32	2300.25
1068.69	2362.22
1072.07	2297.38
1075.44	2744.56
1078.81	3011.59
1082.19	3075.69
1085.56	2975.62
1088.94	2507.56
1092.31	2358.06
1095.69	2799.59
1099.06	3059.94
1102.44	3050.03
1105.81	3475.78
1109.19	3332.56
1112.56	3004.31
1115.94	1982.94
1119.31	2116.59
1122.69	2234.91
1126.06	2107.97
1129.44	1999.88
1132.81	1745.59
1136.19	1210.25
1139.56	751.5
1142.94	410.188
1146.31	323.562
1149.69	162.031
1153.06	495.562
1156.43	334.594
1159.81	23.4062
1163.18	610
1166.56	176.906
1169.93	77.3125
1173.31	50.3125
1176.68	565.781
1180.06	841.469
1183.43	1293.44
1186.81	2808.84
1190.18	3771.16
1193.56	5541.88
1196.93	6884.44
1200.31	9267.03
1203.68	11896.6
1207.06	14288.8
1210.43	17094.3
1213.81	19439.5
1217.18	21951.6
1220.56	24919
1223.93	28047.5
1227.31	29840.2
1230.68	31666.5
1234.06	32813.8
1237.43	32337.7
1240.81	31747.2
1244.18	30498.1
1247.56	27189.1
1250.93	23720
1254.31	20991.2
1257.68	17606.8
1261.05	14712.5
1264.43	10843
1267.8	7994.25
1271.18	5842.03
1274.55	3494.28
1277.93	582.281
1281.3	377.188
