Measurement: Raman, 532 nm, unoriented, Raman Data Processed
Mineral: Chabazite-K
Rruff sample: R120032
Ideal chemistry: (K_2_NaCa_0.5_)Al_4_Si_8_O_24_11H_2_O
Locality: Kirovskii mine, Rasvumchorr Mt, Khibiny Massif, Kola Peninsula, Murmanskaja Oblast, Northern Region, Russia
Source: Donald Doell
Description: Druse of colorless rhombohedral crystals
Raman shift (cm-1)	intensity
215.36	5459.92
218.253	5482.46
221.146	5542.45
224.038	5587.4
226.931	5624.7
229.824	5678.2
232.717	5713.24
235.609	5746.01
238.502	5746.57
241.395	5761.41
244.287	5770.04
247.18	5813.28
250.073	5829.95
252.965	5864.45
255.858	5876.68
258.751	5896.06
261.644	5918.2
264.536	5937.05
267.429	5960.83
270.322	5986.55
273.214	6008.96
276.107	6032.58
279	6038.13
281.892	6051.54
284.785	6044.08
287.678	6043.1
290.571	6071.89
293.463	6086.85
296.356	6107.35
299.249	6130.68
302.141	6149.45
305.034	6170.64
307.927	6187.9
310.82	6189.11
313.712	6198.66
316.605	6229.65
319.498	6234.51
322.39	6243.73
325.283	6255.77
328.176	6260.82
331.068	6267.63
333.961	6295.05
336.854	6321.18
339.747	6333.19
342.639	6315.3
345.532	6304.94
348.425	6319.85
351.317	6327.48
354.21	6364.9
357.103	6363.55
359.995	6381.61
362.888	6362.94
365.781	6370.67
368.673	6387.03
371.566	6394.77
374.459	6391.06
377.352	6394.21
380.244	6404.61
383.137	6419.7
386.03	6437.66
388.922	6444.46
391.815	6452.34
394.708	6451.67
397.601	6474.98
400.493	6483.01
403.386	6500.81
406.279	6504.37
409.171	6521.53
412.064	6541.42
414.957	6557.94
417.849	6550.27
420.742	6537.57
423.635	6557.39
426.527	6571.86
429.42	6625.04
432.313	6618.27
435.206	6623.75
438.098	6658.7
440.991	6669.55
443.884	6714.58
446.776	6740.66
449.669	6768.66
452.562	6787.5
455.454	6800.9
458.347	6850.18
461.24	6859.66
464.133	6878.75
467.025	6892.79
469.918	6907.36
472.811	6945.36
475.703	6970.43
478.596	6965.82
481.489	6944.23
484.382	6923.02
487.274	6864.91
490.167	6843.18
493.06	6795.15
495.952	6803.83
498.845	6773.49
501.738	6744.31
504.63	6727.9
507.523	6718.89
510.416	6719.84
513.308	6720.32
516.201	6708.99
519.094	6694.87
521.987	6704.22
524.879	6728.86
527.772	6751.79
530.665	6717.57
533.557	6727.3
536.45	6712.54
539.343	6722.18
542.236	6724.3
545.128	6732.9
548.021	6730.8
550.914	6747.01
553.806	6746.34
556.699	6730.75
559.592	6739.56
562.484	6733.55
565.377	6712.63
568.27	6726.24
571.163	6715.49
574.055	6704.46
576.948	6728.29
579.841	6743.75
582.733	6744.42
585.626	6729.96
588.519	6741.55
591.411	6752.45
594.304	6745.1
597.197	6742.41
600.09	6728.11
602.982	6717.3
605.875	6714.92
608.768	6716.99
611.66	6725.68
614.553	6726.28
617.446	6723.74
620.338	6709.49
623.231	6711.99
626.124	6702.37
629.016	6697.73
631.909	6714.33
634.802	6727.24
637.695	6726.96
640.587	6717.2
643.48	6725.17
646.373	6731.52
649.265	6727.56
652.158	6730.97
655.051	6759.35
657.943	6747.02
660.836	6762.1
663.729	6752.21
666.622	6743.52
669.514	6759.67
672.407	6755.51
675.3	6768.1
678.192	6767.63
681.085	6793.74
683.978	6806.6
686.87	6810.93
689.763	6821.32
692.656	6815.12
695.549	6811.01
698.441	6810.49
701.334	6807.19
704.227	6799.55
707.119	6804.93
710.012	6826.48
712.905	6833.62
715.798	6823.51
718.69	6801.74
721.583	6809.27
724.476	6829.93
727.368	6841.07
730.261	6849.72
733.154	6845.63
736.046	6853.92
738.939	6847.73
741.832	6832.86
744.725	6831.85
747.617	6841.8
750.51	6849.44
753.403	6886.71
756.295	6898.33
759.188	6893.39
762.081	6882.69
764.973	6886.49
767.866	6878.98
770.759	6890.65
773.652	6905.41
776.544	6893.97
779.437	6925.44
782.33	6920.32
785.222	6901.76
788.115	6900.78
791.008	6909.66
793.9	6929.6
796.793	6918.4
799.686	6896.39
802.578	6909.47
805.471	6922.34
808.364	6931.93
811.257	6921.06
814.149	6939.77
817.042	6946.45
819.935	6960.16
822.827	6969.39
825.72	6936.67
828.613	6940.49
831.505	6954.78
834.398	6938.24
837.291	6949.25
840.184	6968.61
843.076	6961.15
845.969	6971.87
848.862	6976.48
851.754	6967
854.647	6970.97
857.54	6986.26
860.433	6995.1
863.325	6982.42
866.218	6991.17
869.111	6971.89
872.003	6999.15
874.896	7028.19
877.789	7010.93
880.681	6999.09
883.574	7012.15
886.467	7029.81
889.36	7056.5
892.252	7029.12
895.145	7034.71
898.038	7027.13
900.93	7034.29
903.823	7050.66
906.716	7054.85
909.608	7064.88
912.501	7071.52
915.394	7067.5
918.287	7082.69
921.179	7075.98
924.072	7075.05
926.965	7062.97
929.857	7079.56
932.75	7052.54
935.643	7034.22
938.535	7054.27
941.428	7071.2
944.321	7080.03
947.213	7089.34
950.106	7071.76
952.999	7062.91
955.892	7059.76
958.784	7056.7
961.677	7068.34
964.57	7089.3
967.462	7096.65
970.355	7118.67
973.248	7096.16
976.14	7117.74
979.033	7124.52
981.926	7119.36
984.819	7109.21
987.711	7132.42
990.604	7145.11
993.497	7153.54
996.389	7142.63
999.282	7123.33
1002.17	7149.63
1005.07	7138.03
1007.96	7175.72
1010.85	7170.01
1013.75	7163.37
1016.64	7163.44
1019.53	7189.72
1022.42	7207.54
1025.32	7180.79
1028.21	7194.77
1031.1	7194.24
1033.99	7203.56
1036.89	7227.39
1039.78	7194.55
1042.67	7200.71
1045.57	7194.6
1048.46	7216.23
1051.35	7234.95
1054.24	7248.06
1057.14	7260.85
1060.03	7242.33
1062.92	7250.89
1065.81	7250.68
1068.71	7252.6
1071.6	7255.4
1074.49	7229.5
1077.38	7241.75
1080.28	7250.95
1083.17	7264.85
1086.06	7256.94
1088.96	7258.2
1091.85	7274.59
1094.74	7281.21
1097.63	7297.47
1100.53	7309.89
1103.42	7293.97
1106.31	7298.84
1109.2	7289.65
1112.1	7329.61
1114.99	7318.4
1117.88	7320.4
1120.78	7327.5
1123.67	7331.93
1126.56	7317.78
1129.45	7314.02
1132.35	7288.35
1135.24	7321.5
1138.13	7341.72
1141.02	7324.23
1143.92	7327.04
1146.81	7337.9
1149.7	7343.37
1152.6	7349.27
1155.49	7348.65
1158.38	7331.21
1161.27	7322.98
1164.17	7363.93
1167.06	7342.48
1169.95	7338.78
1172.84	7351.12
1175.74	7364.78
1178.63	7361.23
1181.52	7372.53
1184.41	7368.94
1187.31	7377.7
1190.2	7363.33
1193.09	7378.1
1195.99	7367.95
1198.88	7384.96
1201.77	7384.95
1204.66	7400.65
1207.56	7409.84
1210.45	7419.43
1213.34	7419.76
1216.23	7402.7
1219.13	7393.8
1222.02	7391.16
1224.91	7408
1227.81	7422.31
1230.7	7408.41
1233.59	7403.12
1236.48	7371.43
1239.38	7386.6
1242.27	7409.22
1245.16	7424.76
1248.05	7423.59
1250.95	7418.07
1253.84	7432.32
1256.73	7426.35
1259.62	7457.7
1262.52	7477.28
1265.41	7468.81
1268.3	7466.27
1271.2	7470.64
1274.09	7465.37
1276.98	7471.58
1279.87	7457.65
1282.77	7476.92
1285.66	7471.64
1288.55	7492.1
1291.44	7499.9
1294.34	7503.62
1297.23	7498.2
1300.12	7512.31
1303.02	7470.61
