Measurement: Raman, 532 nm, unoriented, Raman Data Processed
Mineral: Chabourneite
Rruff sample: R070371
Ideal chemistry: Tl^1+^_4_Pb^2+^_2_(Sb^3+^,As^3+^)_20_S^2-^_34_
Locality: Jas Roux, Pelvoux Mt., Valgaudemar, Hautes-Alpes, Provence-Alpes-CÃ´te d'Azur, France
Source: Michael Scott
Description: Black metallic with conchoidal fracture, associated with yellow-red realgar and deep-red smithite, R070642, (with good cleavage).
Raman shift (cm-1)	intensity
156.411	0
159.786	2.492
163.161	8.82684
166.536	30.359
169.911	33.6763
173.286	3.75159
176.66	9.08618
180.035	6.15356
183.41	14.6129
186.785	17.2123
190.16	22.0272
193.535	16.4924
196.909	8.17908
200.284	17.3245
203.659	15.9864
207.034	20.5389
210.409	1.2113
213.783	1.33289
217.158	32.6091
220.533	34.2722
223.908	96.4698
227.283	116.318
230.657	132.266
234.032	186.448
237.407	231.982
240.782	283.781
244.157	297.139
247.532	320.13
250.906	357.311
254.281	354.466
257.656	412.471
261.031	386.95
264.406	396.592
267.781	391.869
271.155	389.602
274.53	408.904
277.905	428.726
281.28	376.322
284.655	405.145
288.029	357.068
291.404	354.685
294.779	337.708
298.154	335.552
301.529	327.375
304.904	350.53
308.278	288.808
311.653	288.224
315.028	261.738
318.403	256.409
321.778	249.282
325.152	229.32
328.527	182.923
331.902	159.906
335.277	115.19
338.652	75.9769
342.026	63.7347
345.401	26.2554
348.776	27.0855
352.151	54.7321
355.526	33.4768
358.901	48.6052
362.275	34.4594
365.65	31.0986
369.025	18.5692
372.4	21.8922
375.775	17.5354
379.149	14.413
382.524	4.79608
385.899	11.1321
389.274	11.663
392.649	10.4725
396.024	14.6091
399.398	13.3227
402.773	7.91998
406.148	9.3429
409.523	10.3055
412.898	30.4111
416.272	33.7676
419.647	38.823
423.022	40.7574
426.397	43.5991
429.772	44.0229
433.147	47.045
436.521	54.8934
439.896	59.0489
443.271	49.8565
446.646	58.4662
450.021	68.7141
453.396	25.625
456.77	51.8156
460.145	61.566
463.52	46.9094
466.895	34.1401
470.27	49.1046
473.644	45.9458
477.019	39.9337
480.394	40.0364
483.769	60.95
487.144	32.1763
490.519	53.6786
493.893	71.5145
497.268	48.6042
500.643	24.089
504.018	8.66559
507.393	18.7727
510.767	28.0626
514.142	24.8882
517.517	7.56995
520.892	9.84668
524.267	20.0528
527.641	25.5167
531.016	25.213
534.391	15.3626
537.766	15.7338
541.141	18.3235
544.516	11.7486
547.89	7.32599
551.265	6.67822
554.64	25.3183
558.015	0.731812
561.39	5.68713
564.764	4.43329
568.139	16.2175
571.514	1.98334
574.889	13.6806
578.264	1.83801
581.639	5.14471
585.013	29.7065
588.388	4.37671
591.763	4.84912
595.138	21.9852
598.513	8.87549
601.888	9.38922
605.262	10.0969
608.637	30.0103
612.012	14.3646
615.387	28.2866
618.762	13.7589
622.136	25.0408
625.511	10.027
628.886	12.3206
632.261	15.327
635.636	33.1287
639.01	16.5051
642.385	20.866
645.76	27.5767
649.135	27.802
652.51	20.5156
655.885	11.353
659.259	23.4623
662.634	12.2467
666.009	5.35901
669.384	13.2779
672.759	19.8735
676.134	28.0686
679.508	7.96954
682.883	26.8362
686.258	6.57562
689.633	6.94043
693.008	3.74188
696.382	1.71942
699.757	6.44757
703.132	31.7265
706.507	10.7509
709.882	21.7265
713.256	10.8039
716.631	14.2875
720.006	27.5388
723.381	8.87531
726.756	22.5693
730.131	14.5753
733.505	0.156982
736.88	33.5574
740.255	14.7476
743.63	10.9422
747.005	19.7336
750.38	16.4774
753.754	38.7653
757.129	11.6168
760.504	25.0754
763.879	20.7278
767.254	12.3862
770.628	30.1869
774.003	31.7535
777.378	6.63147
780.753	21.3081
784.128	4.5318
787.503	8.32214
790.877	35.5482
794.252	36.8408
797.627	10.3925
801.002	21.8638
804.377	20.6821
807.751	29.7469
811.126	16.4238
814.501	14.52
817.876	12.2679
821.251	10.0372
824.625	12.7058
828	13.0814
831.375	9.49817
834.75	25.9258
838.125	32.4833
841.5	41.0411
844.874	3.23071
848.249	1.80133
851.624	25.5181
854.999	1.75708
858.374	15.936
861.749	16.602
865.123	18.4384
868.498	13.7734
871.873	34.3582
875.248	23.5148
878.623	11.2542
881.997	23.6333
885.372	22.8362
888.747	20.1408
892.122	1.71497
895.497	16.2504
898.871	10.2516
902.246	25.2086
905.621	8.23682
908.996	21.4976
912.371	33.5959
915.746	1.70453
919.12	11.2082
922.495	7.07172
925.87	8.66363
929.245	26.794
932.62	13.0193
935.995	21.1703
939.369	14.0896
942.744	18.5822
946.119	22.6028
949.494	1.89618
952.869	8.14844
956.243	11.4644
959.618	37.5586
962.993	31.0942
966.368	20.9304
969.743	2.18964
973.117	17.8298
976.492	18.3728
979.867	24.1135
983.242	15.3215
986.617	21.3142
989.992	0.635193
993.366	3.6991
996.741	26.7916
1000.12	48.6944
1003.49	1.47748
1006.87	8.11938
1010.24	10.5293
1013.62	9.02551
1016.99	12.0331
1020.37	12.2438
1023.74	31.4119
1027.12	15.6838
1030.49	17.2466
1033.86	9.10284
1037.24	26.8818
1040.61	14.2288
1043.99	1.9071
1047.36	32.2304
1050.74	7.28467
1054.11	4.33911
1057.49	8.57117
1060.86	15.8789
1064.24	7.97278
1067.61	22.9443
1070.99	27.7848
1074.36	16.0317
1077.74	9.06006
1081.11	28.3598
1084.49	14.2109
1087.86	23.4334
1091.24	18.9608
1094.61	11.4307
1097.99	0.866089
1101.36	25.8229
1104.73	19.2961
1108.11	26.4615
1111.48	1.33734
1114.86	10.8458
1118.23	23.696
1121.61	31.0207
1124.98	25.5395
1128.36	7.9101
1131.73	21.7688
1135.11	20.9752
1138.48	1.4953
1141.86	36.9809
1145.23	26.2555
1148.61	8.24737
1151.98	25.4339
1155.36	33.0488
1158.73	16.3763
1162.11	13.1443
1165.48	13.6209
1168.86	7.27765
1172.23	5.57043
1175.61	18.3051
1178.98	11.4887
1182.36	46.0661
1185.73	8.65625
1189.11	14.1628
1192.48	37.1471
1195.86	16.627
1199.23	0.624023
1202.61	34.2845
1205.98	11.7872
1209.36	27.8725
1212.73	8.59296
1216.1	22.7501
1219.48	10.4334
1222.85	34.2632
1226.23	20.1092
1229.6	13.3023
1232.98	22.0818
1236.35	16.2149
1239.73	21.1604
1243.1	20.1931
1246.48	51.9949
1249.85	46.119
1253.23	11.7246
1256.6	36.8599
1259.98	32.9063
1263.35	10.1044
1266.73	35.6555
1270.1	20.0331
1273.48	27.5673
1276.85	27.1345
1280.23	1.57147
1283.6	6.27564
1286.98	5.74609
1290.35	7.18036
1293.72	42.4111
1297.1	18.6551
1300.47	22.9564
1303.85	18.8637
1307.22	50.5408
1310.6	31.8921
1313.97	6.55542
