Measurement: Raman, 532 nm, unoriented, Raman Data Processed
Mineral: Chalcocite
Rruff sample: R120090
Ideal chemistry: Cu^1+^_2_S^2-^
Locality: Tsumeb, Namibia
Source: William W Pinch
Description: Grey metallic hexagonal tablets associated with stottite R120089, siderite and tennantite
Measured chemistry: Cu_1.99_S
Raman shift (cm-1)	intensity
196.558	0
199.451	3.6087
202.343	1.37157
205.236	4.83957
208.129	7.85134
211.021	4.35348
213.914	8.17194
216.807	7.03731
219.699	8.44189
222.592	7.80098
225.485	6.81687
228.377	5.57485
231.27	11.3856
234.163	6.50219
237.056	4.68729
239.948	2.17787
242.841	6.30347
245.734	0.703545
248.626	3.82212
251.519	4.15554
254.412	4.17489
257.305	4.30233
260.197	1.92208
263.09	6.19095
265.983	3.28609
268.875	2.18512
271.768	4.32742
274.661	6.14568
277.553	7.81638
280.446	6.00507
283.339	8.77496
286.232	9.60273
289.124	12.1976
292.017	10.8131
294.91	7.87696
297.802	8.12954
300.695	5.91203
303.588	6.00291
306.481	5.38848
309.373	3.64953
312.266	2.85775
315.159	1.96986
318.051	1.18555
320.944	2.97193
323.837	3.4519
326.729	4.32219
329.622	3.16523
332.515	4.17104
335.408	2.25116
338.3	5.74947
341.193	4.63795
344.086	3.36635
346.978	1.66213
349.871	3.48041
352.764	2.55129
355.656	0.825275
358.549	1.17496
361.442	3.16176
364.334	4.1227
367.227	0.076622
370.12	3.13919
373.012	4.05873
375.905	0.912266
378.798	0.111256
381.691	0.62257
384.583	0.058582
387.476	0.428436
390.369	3.84355
393.261	1.44835
396.154	1.99586
399.047	4.26102
401.94	2.30898
404.832	0.676662
407.725	3.10685
410.618	3.54538
413.51	3.70035
416.403	2.92658
419.296	2.62686
422.188	1.50106
425.081	2.78237
427.974	1.40633
430.866	3.0021
433.759	2.08749
436.652	0.550026
439.545	1.65348
442.437	2.19928
445.33	3.73728
448.223	2.84677
451.115	4.4819
454.008	2.48457
456.901	3.571
459.793	1.01578
462.686	1.22748
465.579	3.81654
468.472	0.174934
471.364	1.78048
474.257	2.04759
477.15	5.67773
480.042	2.10038
482.935	3.12539
485.828	4.39655
488.721	1.78183
491.613	1.36476
494.506	1.40954
497.399	2.48704
500.291	1.3894
503.184	4.11076
506.077	3.60015
508.969	2.64409
511.862	0.026079
514.755	0.539986
517.648	2.41699
520.54	0.418734
523.433	1.61134
526.326	2.85216
529.218	3.85196
532.111	1.11404
535.004	1.11677
537.896	0.48074
540.789	1.04402
543.682	1.91065
546.575	3.45248
549.467	4.23167
552.36	2.99197
555.253	1.32323
558.145	3.26456
561.038	1.12442
563.931	1.75518
566.823	1.50804
569.716	1.16433
572.609	1.66318
575.502	1.52937
578.394	2.22581
581.287	3.40701
584.18	2.02658
587.072	1.72586
589.965	0.580505
592.858	1.7423
595.75	1.83055
598.643	2.04673
601.536	1.61888
604.428	1.19887
607.321	2.37894
610.214	3.20502
613.107	4.48191
615.999	1.15632
618.892	5.13385
621.785	2.9733
624.677	4.7468
627.57	4.11139
630.463	5.50422
633.356	4.2036
636.248	3.6176
639.141	3.88445
642.034	2.66616
644.926	2.11977
647.819	4.45191
650.712	2.31042
653.604	0.140812
656.497	2.91293
659.39	0.511505
662.283	3.96055
665.175	1.06955
668.068	0.782757
670.961	1.58355
673.853	0.779453
676.746	0.739407
679.639	3.54504
682.531	3.57603
685.424	3.29772
688.317	3.0085
691.21	2.35335
694.102	1.79688
696.995	1.39356
699.888	2.07639
702.78	1.09072
705.673	1.96988
708.566	3.63515
711.458	3.95301
714.351	2.66515
717.244	1.40902
720.136	0.615635
723.029	3.53258
725.922	3.32584
728.815	1.09417
731.707	1.95507
734.6	1.6682
737.493	3.89495
740.385	0.747646
743.278	2.12246
746.171	2.03624
749.063	3.49917
751.956	0.169376
754.849	2.31655
757.742	1.5201
760.634	2.85318
763.527	1.55475
766.42	1.87669
769.312	2.29634
772.205	4.09389
775.098	4.82202
777.99	1.63381
780.883	3.80713
783.776	2.13732
786.669	0.983791
789.561	4.27084
792.454	4.80578
795.347	5.87035
798.239	4.4222
801.132	2.03499
804.025	3.52244
806.918	4.51837
809.81	3.31474
812.703	5.85524
815.596	3.19742
818.488	5.31869
821.381	4.99283
824.274	3.84694
827.166	6.77221
830.059	4.64336
832.952	2.53794
835.845	3.74931
838.737	7.59478
841.63	5.61422
844.523	6.67205
847.415	5.20702
850.308	7.31447
853.201	7.28388
856.093	7.03342
858.986	7.33441
861.879	6.23772
864.771	6.35757
867.664	6.3298
870.557	5.12891
873.45	4.86676
876.342	4.83543
879.235	6.67237
882.128	6.51056
885.02	4.95214
887.913	4.77359
890.806	5.8093
893.698	4.6017
896.591	1.20033
899.484	4.06275
902.377	1.43943
905.269	2.42861
908.162	1.17501
911.055	0.114338
913.947	2.62673
916.84	0.091238
919.733	2.45984
922.625	1.20745
925.518	1.38049
928.411	1.91447
931.304	0.663649
934.196	0.921576
937.089	2.5947
939.982	0.950375
942.875	2.2824
945.767	3.43501
948.66	0.032621
951.553	0.153269
954.445	1.84943
957.338	2.78556
960.231	3.48322
963.123	2.62776
966.016	1.23239
968.909	1.99374
971.802	2.80114
974.694	1.93342
977.587	0.98872
980.48	2.30839
983.372	3.45946
986.265	1.2602
989.158	2.67917
992.05	2.91035
994.943	2.40601
997.836	1.2735
1000.73	1.73611
1003.62	4.26017
1006.51	0.696793
1009.41	1.54923
1012.3	0.033495
1015.19	4.07733
1018.09	2.35442
1020.98	4.08385
1023.87	2.46248
1026.76	2.11827
1029.66	2.38329
1032.55	4.64439
1035.44	3.14334
1038.33	4.57368
1041.23	1.61191
1044.12	1.47293
1047.01	1.48393
1049.9	1.06672
1052.8	2.54804
1055.69	4.1274
1058.58	1.70772
1061.47	0.068256
1064.37	1.81819
1067.26	0.921837
1070.15	1.76049
1073.05	3.31502
1075.94	3.4022
1078.83	2.35493
1081.72	0.229795
1084.62	2.53003
1087.51	2.40561
1090.4	0.325037
1093.3	2.31571
1096.19	3.24536
1099.08	1.00401
1101.97	2.52155
1104.87	3.14454
1107.76	1.85348
1110.65	1.22853
1113.54	0.401863
1116.44	1.04139
1119.33	2.14202
1122.22	3.03721
1125.12	3.56832
1128.01	0.681879
1130.9	1.56877
1133.79	2.19158
1136.68	0.378265
1139.58	2.17108
1142.47	1.99188
1145.36	3.57554
1148.26	2.70021
1151.15	4.56547
1154.04	4.38021
1156.93	3.81054
1159.83	2.64483
1162.72	1.10465
1165.61	1.12313
1168.51	0.203468
1171.4	2.89272
1174.29	1.75179
1177.18	0.595888
1180.08	2.5029
1182.97	2.54632
1185.86	3.04916
1188.75	1.34397
1191.65	2.49637
1194.54	2.2756
1197.43	1.28249
1200.33	0.037237
1203.22	4.55834
1206.11	2.10938
1209	0.249235
1211.9	2.30817
1214.79	3.44452
1217.68	1.4517
1220.57	3.11309
1223.47	0.681763
1226.36	3.20792
1229.25	2.29733
1232.14	1.91995
1235.04	3.69749
1237.93	1.82521
1240.82	2.87261
1243.71	3.28292
1246.61	0.94467
1249.5	1.78367
1252.39	1.80123
1255.29	0.684849
1258.18	0.001293
1261.07	2.9924
1263.96	1.28354
1266.86	4.41913
1269.75	0.856441
1272.64	1.96879
1275.54	1.62325
1278.43	2.55007
1281.32	2.21082
1284.21	1.47836
1287.11	2.00204
1290	1.70717
1292.89	3.36627
1295.78	1.89511
1298.68	1.17287
1301.57	0.270544
