Measurement: Raman, 780 nm, unoriented, Raman Data RAW
Mineral: Chalcopyrite
Rruff sample: R050222
Ideal chemistry: Cu^1+^Fe^3+^S^2-^_2_
Locality: Iron Cap mine, Landsman Camp, Graham County, Arizona, USA
Source: Bob Downs
Description: Group of brass yellow metallic tetrahedra, dark streaks represent alteration by bacteria where S is left behind
Measured chemistry: Cu_1.00_Fe_1.00_S_2.00_
Raman shift (cm-1)	intensity
92.3535	262.864
95.7283	251.081
99.1031	233.906
102.478	199.433
105.853	199.325
109.228	187.108
112.602	140.726
115.977	120.988
119.352	108.621
122.727	110.383
126.102	110.299
129.476	123.04
132.851	105.547
136.226	98.6348
139.601	95.2468
142.976	87.6876
146.351	82.9831
149.725	77.8797
153.1	75.7504
156.475	72.9584
159.85	71.2318
163.225	70.0137
166.6	70.309
169.974	67.9647
173.349	66.939
176.724	67.4855
180.099	69.2548
183.474	68.5197
186.848	68.2997
190.223	67.2809
193.598	67.4666
196.973	66.9507
200.348	66.8227
203.722	66.1348
207.097	66.0485
210.472	67.1096
213.847	69.1048
217.222	71.1068
220.596	69.8408
223.971	73.2838
227.346	71.973
230.721	75.1343
234.096	81.2676
237.471	86.6495
240.845	91.4325
244.22	96.2073
247.595	100.917
250.97	105.74
254.345	104.945
257.719	106.112
261.094	102.041
264.469	100.126
267.844	103.997
271.219	118.238
274.594	121.284
277.968	125.233
281.343	132.621
284.718	132.291
288.093	122.468
291.468	93.1945
294.842	71.6402
298.217	67.0384
301.592	67.9903
304.967	69.3358
308.342	69.7407
311.717	71.0179
315.091	64.4223
318.466	61.4377
321.841	56.8737
325.216	55.2715
328.591	50.7488
331.966	51.8393
335.34	50.2403
338.715	52.1889
342.09	51.1817
345.465	50.9848
348.839	51.1897
352.214	48.0642
355.589	46.7365
358.964	43.4598
362.339	42.6592
365.714	45.8816
369.088	45.0062
372.463	43.0076
375.838	43.4801
379.213	40.5886
382.588	40.9246
385.962	41.036
389.337	39.2436
392.712	40.7609
396.087	38.4595
399.462	38.4509
402.837	38.1038
406.211	39.2665
409.586	37.6278
412.961	38.3401
416.336	38.8627
419.711	36.5273
423.086	38.0725
426.46	37.0096
429.835	36.9865
433.21	38.3459
436.585	35.1433
439.96	35.8205
443.334	34.7083
446.709	35.4902
450.084	35.78
453.459	37.8804
456.834	33.8357
460.209	36.244
463.583	35.6269
466.958	33.3821
470.333	33.8498
473.708	34.7874
477.083	34.2535
480.457	35.2249
483.832	35.8636
487.207	33.5431
490.582	33.4919
493.957	34.2084
497.332	33.0309
500.706	32.98
504.081	34.334
507.456	30.9558
510.831	32.1767
514.206	33.1084
517.58	32.6654
520.955	30.6153
524.33	32.4328
527.705	31.6443
531.08	31.6667
534.455	32.3978
537.829	32.9443
541.204	34.3742
544.579	35.8145
547.954	43.8094
551.329	56.371
554.703	54.6369
558.078	43.7853
561.453	37.347
564.828	35.4481
568.203	33.5223
571.577	34.023
574.952	33.0463
578.327	33.3118
581.702	32.5638
585.077	34.91
588.452	33.1556
591.826	34.4123
595.201	31.0004
598.576	33.3852
601.951	32.4838
605.326	34.317
608.7	33.3222
612.075	35.5632
615.45	33.3963
618.825	33.7045
622.2	32.249
625.574	31.4268
628.949	34.2349
632.324	35.6179
635.699	34.4655
639.074	33.2837
642.448	36.0217
645.823	36.0341
649.198	35.8425
652.573	37.8034
655.948	36.0288
659.323	36.2822
662.697	37.5161
666.072	37.1523
669.447	39.7131
672.822	38.8154
676.197	37.9046
679.572	38.0497
682.946	37.138
686.321	38.0907
689.696	38.0326
693.071	38.4006
696.446	40.1529
699.82	39.704
703.195	39.5141
706.57	39.7807
709.945	40.0704
713.32	39.6843
716.694	39.7602
720.069	40.7465
723.444	39.7265
726.819	39.6287
730.194	40.484
733.569	39.8593
736.943	39.6881
740.318	42.1227
743.693	41.659
747.068	40.3804
750.443	43.1998
753.817	43.1414
757.192	42.2305
760.567	42.6392
763.942	42.4366
767.317	41.9061
770.692	44.6733
774.066	43.3849
777.441	43.5733
780.816	46.7631
784.191	45.5497
787.566	45.7238
790.941	44.9329
794.315	45.8623
797.69	46.7557
801.065	47.9125
804.44	47.6728
807.815	49.8839
811.189	46.7144
814.564	48.6749
817.939	48.109
821.314	48.2171
824.689	47.1454
828.063	47.6005
831.438	48.4791
834.813	49.7811
838.188	49.6377
841.563	50.0029
844.938	49.5113
848.312	50.4986
851.687	50.0891
855.062	48.1669
858.437	48.1719
861.812	46.8474
865.187	46.7365
868.561	47.6371
871.936	46.617
875.311	43.8654
878.686	45.6611
882.061	42.7799
885.435	42.583
888.81	37.9525
892.185	38.293
895.56	39.0609
898.935	37.1726
902.309	36.4111
905.684	37.5868
909.059	35.4928
912.434	36.2152
915.809	33.4315
919.183	35.9309
922.558	33.5781
925.933	34.7711
929.308	35.5424
932.683	31.1606
936.058	33.6036
939.432	29.6571
942.807	33.1183
946.182	31.5479
949.557	30.7236
952.932	30.7555
956.307	30.6834
959.681	29.5987
963.056	29.2712
966.431	28.7827
969.806	31.2234
973.181	29.0709
976.555	30.4464
979.93	29.5238
983.305	28.7814
986.68	28.6278
990.055	30.1232
993.429	29.9959
996.804	28.6535
1000.18	31.4228
1003.55	27.6067
1006.93	29.2624
1010.3	28.9027
1013.68	29.034
1017.05	27.4126
1020.43	28.9594
1023.8	26.9352
1027.18	27.4669
1030.55	28.0237
1033.93	28.5765
1037.3	27.0731
1040.68	28.0882
1044.05	27.9285
1047.43	28.6558
1050.8	27.1752
1054.18	27.183
1057.55	27.6228
1060.93	27.0589
1064.3	29.5055
1067.67	28.5001
1071.05	26.4243
1074.42	26.3051
1077.8	25.7794
1081.17	26.1901
1084.55	26.7504
1087.92	26.5144
1091.3	25.8399
1094.67	25.702
1098.05	24.1922
1101.42	24.1504
1104.8	26.0299
1108.17	25.1752
1111.55	25.4209
1114.92	24.3132
1118.3	25.3339
1121.67	23.7111
1125.05	24.1984
1128.42	24.9293
1131.8	25.2938
1135.17	24.5826
1138.55	24.8276
1141.92	25.951
1145.3	24.4624
1148.67	24.1386
1152.05	24.3287
1155.42	26.2293
1158.8	24.4716
1162.17	25.5168
1165.55	26.134
1168.92	26.2058
1172.3	26.105
1175.67	24.5755
1179.04	24.814
1182.42	24.3038
1185.79	24.6036
1189.17	24.686
1192.54	25.6949
1195.92	25.6325
1199.29	24.2741
1202.67	27.4984
1206.04	26.0642
1209.42	25.6563
1212.79	23.98
1216.17	25.6968
1219.54	26.5636
1222.92	27.2122
1226.29	26.3268
1229.67	26.9357
1233.04	24.1658
1236.42	27.1423
1239.79	26.7665
1243.17	27.176
1246.54	26.8285
1249.92	26.1027
1253.29	27.7547
1256.66	23.1913
1260.04	27.9007
1263.41	26.8288
1266.79	26.155
1270.16	25.5931
1273.54	27.7525
1276.91	27.5118
1280.29	27.9087
1283.66	28.6243
