Measurement: Raman, 532 nm, unoriented, Raman Data Processed
Mineral: Chalcocite
Rruff sample: R050067
Ideal chemistry: Cu^1+^_2_S^2-^
Locality: Flambeau, Rusk County, Wisconsin, USA
Source: Rock Currier
Description: Iridescent blue irregular hexagonal tablet
Measured chemistry: Cu_2.00_S_1.00_
Raman shift (cm-1)	intensity
160.268	0
163.161	12.9956
166.054	7.99634
168.946	48.2169
171.839	71.1759
174.732	66.6899
177.625	59.7765
180.517	12.6697
183.41	56.9939
186.303	20.6578
189.195	70.4286
192.088	63.5842
194.981	35.9324
197.874	33.1938
200.766	29.328
203.659	19.7876
206.552	6.0907
209.444	25.2822
212.337	23.415
215.23	74.5111
218.122	15.1329
221.015	30.559
223.908	42.1726
226.8	2.88184
229.693	28.6001
232.586	35.7727
235.479	11.5776
238.371	20.5418
241.264	19.1104
244.157	40.581
247.049	29.6436
249.942	24.3459
252.835	37.2432
255.727	20.593
258.62	48.4429
261.513	66.2224
264.406	44.3957
267.298	56.5234
270.191	48.6519
273.084	21.314
275.976	42.3875
278.869	23.8154
281.762	60.5955
284.655	64.9688
287.547	21.4514
290.44	84.7437
293.333	49.0532
296.225	44.3635
299.118	50.366
302.011	64.9458
304.904	59.4241
307.796	37.3335
310.689	49.2898
313.582	49.6599
316.474	57.741
319.367	29.9565
322.26	48.4258
325.152	83.4226
328.045	42.0698
330.938	39.9617
333.83	31.2722
336.723	48.3633
339.616	15.7107
342.509	12.4146
345.401	2.49121
348.294	32.6367
351.187	27.1787
354.079	30.3933
356.972	26.6616
359.865	11.3982
362.757	30.6475
365.65	36.3425
368.543	4.64258
371.436	62.1621
374.328	14.7656
377.221	16.823
380.114	23.509
383.006	53.7053
385.899	33.7627
388.792	43.5762
391.685	53.6326
394.577	31.2092
397.47	50.6558
400.363	41.585
403.255	2.21313
406.148	33.8728
409.041	23.5039
411.933	27.5527
414.826	21.6348
417.719	29.312
420.611	17.9365
423.504	52.3648
426.397	34.9119
429.29	32.3223
432.182	26.5896
435.075	33.7353
437.968	12.085
440.86	14.407
443.753	32.0085
446.646	29.7166
449.538	34.4114
452.431	25.5569
455.324	6.55689
458.217	61.677
461.109	32.7461
464.002	51.627
466.895	27.7107
469.787	24.0281
472.68	28.9954
475.573	34.1455
478.466	33.2632
481.358	12.2742
484.251	26.124
487.144	26.8916
490.036	34.6726
492.929	7.06079
495.822	28.5818
498.714	28.0981
501.607	81.426
504.5	21.4988
507.393	9.38574
510.285	46.5222
513.178	19.5366
516.071	32.564
518.963	36.3948
521.856	41.1682
524.749	15.2285
527.641	25.0818
530.534	58.8364
533.427	3.33325
536.32	42.5503
539.212	71.2551
542.105	19.3245
544.998	0.11377
547.89	57.2888
550.783	38.3835
553.676	54.1711
556.568	18.0491
559.461	40.9282
562.354	43.7732
565.247	22.5794
568.139	60.4204
571.032	45.615
573.925	62.7795
576.817	10.5413
579.71	45.0386
582.603	28.8638
585.495	43.2722
588.388	0.650146
591.281	46.9097
594.174	7.8728
597.066	2.28198
599.959	42.1145
602.852	69.3791
605.744	20.3686
608.637	38.6572
611.53	27.741
614.423	41.572
617.315	78.489
620.208	33.2986
623.101	8.28052
625.993	57.5337
628.886	42.9048
631.779	42.0066
634.671	37.408
637.564	47.918
640.457	54.8411
643.35	71.9397
646.242	34.9653
649.135	63.0652
652.028	31.2979
654.92	52.2004
657.813	36.6726
660.706	58.7895
663.598	49.7341
666.491	31.0547
669.384	89.3779
672.277	23.446
675.169	54.7024
678.062	29.5803
680.955	16.9248
683.847	94.5654
686.74	15.8066
689.633	38.0915
692.525	80.3413
695.418	16.915
698.311	14.0185
701.204	54.2058
704.096	58.4741
706.989	43.2671
709.882	4.51685
712.774	53.7554
715.667	47.6907
718.56	18.3643
721.452	22.1074
724.345	36.4282
727.238	56.6421
730.131	77.1577
733.023	23.0737
735.916	0.222412
738.809	3.46802
741.701	76.9661
744.594	38.3296
747.487	23.4878
750.38	25.9568
753.272	41.4111
756.165	50.8738
759.058	20.6392
761.95	40.9102
764.843	32.2366
767.736	88.1462
770.628	38.4209
773.521	61.7952
776.414	46.4895
779.307	47.0352
782.199	16.439
785.092	14.7732
787.985	42.0125
790.877	40.8508
793.77	13.3457
796.663	39.769
799.555	3.98804
802.448	26.9451
805.341	58.3064
808.234	18.5427
811.126	29.3623
814.019	23.8852
816.912	43.6206
819.804	59.7476
822.697	1.83106
825.59	8.41406
828.482	33.2373
831.375	0.838379
834.268	43.0537
837.16	54.1934
840.053	23.6558
842.946	31.2339
845.839	26.8701
848.731	13.6065
851.624	15.2461
854.517	3.39062
857.409	73.5615
860.302	27.7671
863.195	30.7441
866.087	33.7715
868.98	1.42773
871.873	29.1221
874.766	57.1406
877.658	26.3193
880.551	32.4761
883.444	13.7339
886.337	46.854
889.229	52.1836
892.122	49.5259
895.015	18.6357
897.907	44.0024
900.8	44.2817
903.693	57.4126
906.585	25.979
909.478	11.0049
912.371	15.8984
915.264	28.8198
918.156	10.79
921.049	89.0644
923.942	41.7529
926.834	31.7788
929.727	21.1396
932.62	47.9209
935.512	48.2168
938.405	39.8721
941.298	47.8286
944.191	19.0596
947.083	30.4688
949.976	0.276367
952.869	32.3887
955.761	31.7681
958.654	65.6211
961.547	47.436
964.439	7.18945
967.332	37.2158
970.225	43.8877
973.117	62.2026
976.01	43.3208
978.903	21.2637
981.796	59.082
984.688	24.6987
987.581	37.5664
990.474	33.9937
993.366	61.6323
996.259	44.8198
999.152	77.1318
1002.04	21.043
1004.94	49.187
1007.83	69.1655
1010.72	24.0498
1013.62	35.6348
1016.51	59.333
1019.4	59.5942
1022.29	69.2275
1025.19	79.0889
1028.08	80.6894
1030.97	58.2744
1033.86	53.502
1036.76	8.29297
1039.65	59.4404
1042.54	47.5908
1045.43	58.6406
1048.33	44.7524
1051.22	19.4653
1054.11	36.273
1057.01	29.5523
1059.9	46.0679
1062.79	47.793
1065.68	58.0791
1068.58	71.5791
1071.47	26.7114
1074.36	8.78418
1077.26	26.8271
1080.15	45.2114
1083.04	60.5112
1085.93	2.31787
1088.83	17.0674
1091.72	16.2891
1094.61	14.438
1097.5	54.2134
1100.4	17.8384
1103.29	53.646
1106.18	11.0088
1109.07	33.9214
1111.97	5.4668
1114.86	50.6172
1117.75	42.4624
1120.64	54.7695
1123.54	29.3013
1126.43	47.1455
1129.32	24.7056
1132.22	50.9722
1135.11	47.3442
1138	58.9712
1140.89	32.2451
1143.79	30.0171
1146.68	31.4575
1149.57	73.0742
1152.46	39.6977
1155.36	17.8032
1158.25	56.3042
1161.14	57.8174
1164.04	68.231
1166.93	20.2769
1169.82	4.72803
1172.71	1.70166
1175.61	54.6152
1178.5	20.1992
1181.39	85.0801
1184.29	32.9692
1187.18	61.4228
1190.07	33.0747
1192.96	62.2241
1195.86	42.0112
1198.75	5.69971
1201.64	61.6728
1204.53	80.1265
1207.43	37.0386
1210.32	70.0737
1213.21	17.9834
1216.1	67.001
1219	84.8301
1221.89	11.4038
1224.78	43.7632
1227.67	18.6919
1230.57	62.0063
1233.46	77.0376
1236.35	46.4522
1239.25	64.9082
1242.14	74.4141
1245.03	0.220215
1247.92	31.665
1250.82	68.8501
1253.71	14.0234
1256.6	16.1934
1259.49	74.1567
1262.39	34.0356
1265.28	54.644
1268.17	7.45801
1271.07	51.4731
1273.96	26.813
1276.85	14.1865
1279.74	15.8071
1282.64	8.49609
1285.53	24.6216
1288.42	22.2544
1291.32	73.7749
1294.21	29.626
1297.1	40.0625
1299.99	17.1699
1302.88	26.125
