Measurement: Raman, 780 nm, unoriented, Raman Data Processed
Mineral: Chalcocite
Rruff sample: R070730
Ideal chemistry: Cu^1+^_2_S^2-^
Locality: La Mesa, Chihuahua, Mexico
Source: Michael Scott
Description: Dark gray rounded metallic grains associated with ajoite
Measured chemistry: Cu_1.97_Ag_0.01_S
Raman shift (cm-1)	intensity
122.416	0
125.309	249.231
128.202	317.539
131.094	346.961
133.987	267.566
136.88	79.0156
139.772	66.9648
142.665	73.1172
145.558	20.5312
148.45	5.55859
151.343	328.316
154.236	210.988
157.129	83.5469
160.021	255.559
162.914	217.207
165.807	136.695
168.699	110.508
171.592	169.207
174.485	53.0508
177.377	34.3867
180.27	27.9766
183.163	98.5742
186.055	121.269
188.948	111.293
191.841	205.981
194.734	84.3906
197.626	62.1094
200.519	203.91
203.412	133.965
206.304	80.332
209.197	95.9102
212.09	324.453
214.982	246.551
217.875	37.8125
220.768	98.4492
223.661	207.668
226.553	129.016
229.446	123.121
232.339	72.4727
235.231	85.957
238.124	154.191
241.017	22
243.91	131.738
246.802	91.8438
249.695	43.0664
252.588	155.062
255.48	120.41
258.373	182.109
261.266	266.285
264.158	139.68
267.051	196.387
269.944	239.562
272.837	260.117
275.729	357.496
278.622	135.301
281.515	73.4336
284.407	361.16
287.3	188.293
290.193	95.5234
293.085	159.762
295.978	9.94141
298.871	21.3164
301.764	29.7227
304.656	77.0781
307.549	76.8359
310.442	126.781
313.334	123.512
316.227	245.144
319.12	198.387
322.012	341.871
324.905	87.9727
327.798	201.426
330.69	240.953
333.583	488.309
336.476	384.562
339.369	532.32
342.261	237.121
345.154	207.977
348.047	164.535
350.939	219.695
353.832	322
356.725	286.578
359.618	168.715
362.51	346.184
365.403	53.7578
368.296	241.695
371.188	44.8438
374.081	2.82031
376.974	37.5078
379.866	18.4688
382.759	5.27344
385.652	85.0664
388.545	78.832
391.437	19.6328
394.33	128.856
397.223	198.551
400.115	212.59
403.008	84.2383
405.901	130.559
408.793	137.168
411.686	70.7422
414.579	201.617
417.471	204.336
420.364	122.383
423.257	194.754
426.15	364.309
429.042	479.504
431.935	264.078
434.828	339.062
437.72	324.844
440.613	310.871
443.506	265.023
446.399	509.231
449.291	326.297
452.184	171.164
455.077	199.562
457.969	41.207
460.862	85.5938
463.755	243.957
466.647	198.633
469.54	173.188
472.433	186.125
475.325	94.4414
478.218	283.164
481.111	120.914
484.004	106.043
486.896	215.133
489.789	144.926
492.682	147.312
495.574	323.461
498.467	65.9609
501.36	239.164
504.252	133.188
507.145	117.356
510.038	137.699
512.931	156.144
515.823	190.922
518.716	260.703
521.609	180.277
524.501	120.586
527.394	164.535
530.287	160.656
533.179	124.531
536.072	38.1211
538.965	76.1055
541.858	17.3867
544.75	68.3477
547.643	17.2539
550.536	103.148
553.428	34.9297
556.321	209.422
559.214	61.4414
562.106	331.578
564.999	2.06641
567.892	190.34
570.785	267.106
573.677	198.285
576.57	178.938
579.463	122.402
582.355	178.707
585.248	67.6289
588.141	179.367
591.034	207.574
593.926	137.871
596.819	324.219
599.712	134.59
602.604	262.047
605.497	222.934
608.39	192.789
611.282	306.176
614.175	253.535
617.068	187.672
619.961	239.223
622.853	270.461
625.746	251.91
628.639	184.309
631.531	287.59
634.424	117.152
637.317	281.082
640.209	14.8828
643.102	12.9492
645.995	52.5078
648.888	137.137
651.78	88.3086
654.673	255.496
657.566	76.0078
660.458	341.856
663.351	17.2852
666.244	101.477
669.136	255.758
672.029	171.098
674.922	93.7305
677.814	208.988
680.707	157.758
683.6	238.637
686.493	238.07
689.385	298.457
692.278	114.816
695.171	125.91
698.063	44.4102
700.956	229.445
703.849	239.617
706.741	176.039
709.634	233.965
712.527	240.074
715.42	325.957
718.312	62.125
721.205	200.602
724.098	173.816
726.99	136.074
729.883	218.922
732.776	60.2539
735.668	14.082
738.561	114.219
741.454	113.023
744.347	267.328
747.239	98.75
750.132	119.781
753.025	56.3555
755.917	105.481
758.81	116.754
761.703	13.4102
764.596	15.7422
767.488	23.3633
770.381	9.14844
773.274	60.375
776.166	20.1406
779.059	39.5117
781.952	35.1992
784.844	346.117
787.737	313.633
790.63	322.293
793.523	179.621
796.415	107.773
799.308	39.9141
802.201	91.2109
805.093	188.75
807.986	219.227
810.879	191.981
813.771	260.981
816.664	196.152
819.557	169.477
822.449	179.731
825.342	124.941
828.235	430.426
831.128	222.762
834.02	69.9375
836.913	223.793
839.806	136.445
842.698	186.996
845.591	134.699
848.484	113.16
851.376	192.57
854.269	231.883
857.162	66.8477
860.055	120
862.947	4.28906
865.84	95.1523
868.733	71.8789
871.625	90.9727
874.518	183.406
877.411	123.102
880.303	137.586
883.196	188.668
886.089	188.523
888.982	38.3984
891.874	143.125
894.767	122.809
897.66	62.125
900.552	138.992
903.445	3.22656
906.338	525.367
909.231	48.6094
912.123	130.465
915.016	213.019
917.909	323.336
920.801	132.121
923.694	131.769
926.587	117.484
929.479	199.941
932.372	145.496
935.265	181.031
938.158	209.231
941.05	153.91
943.943	140.699
946.836	192.043
949.728	180.641
952.621	158.269
955.514	133.516
958.406	322.769
961.299	147.023
964.192	303.332
967.085	103.805
969.977	1.37891
972.87	58.7539
975.763	170.988
978.655	18.2969
981.548	389.406
984.441	9.98047
987.333	127.328
990.226	70.8047
993.119	33.2461
996.011	94.1016
998.904	84.3477
1001.8	152.012
1004.69	316.059
1007.58	270.875
1010.48	248.152
1013.37	324.469
1016.26	386.965
1019.15	897.617
1022.05	583.973
1024.94	664.766
1027.83	332.309
1030.72	447.488
1033.62	294.059
1036.51	431.246
1039.4	519.883
1042.3	545.055
1045.19	953.941
1048.08	714.734
1050.97	450.812
1053.87	399.383
1056.76	840.906
1059.65	461.988
1062.54	470.812
1065.44	378.055
1068.33	299.859
1071.22	372.828
1074.11	459.894
1077.01	448.551
1079.9	247.32
1082.79	309.769
1085.68	218.41
1088.58	283.68
1091.47	127.75
1094.36	45.957
1097.26	75.8164
1100.15	124.894
1103.04	34.8008
1105.93	43.1328
1108.83	189.301
1111.72	78.9375
1114.61	78.9805
1117.51	131.996
1120.4	17.7812
1123.29	35.7578
1126.18	83.3398
1129.08	86.0117
1131.97	7.07031
1134.86	107.023
1137.75	254.285
1140.65	184.062
1143.54	135.797
1146.43	181.07
1149.33	261.453
1152.22	229.207
1155.11	194.512
1158	218.195
1160.89	453.672
1163.79	340.266
1166.68	185.672
1169.57	223.758
1172.47	344.039
1175.36	304.879
1178.25	425.473
1181.14	303.969
1184.04	232.641
1186.93	352.398
1189.82	237.223
1192.71	438.301
1195.61	410.805
1198.5	204.203
1201.39	232.59
1204.29	372.098
1207.18	333.199
1210.07	161.348
1212.96	211.027
1215.86	453.574
1218.75	137.492
1221.64	200.5
1224.54	142
1227.43	54.25
1230.32	12.1875
1233.21	55.1211
1236.11	123.871
1239	16.4922
1241.89	184.293
1244.78	179.992
1247.68	61.5781
1250.57	145.551
1253.46	167.812
1256.35	212.242
1259.25	84.8672
