Measurement: Raman, 780 nm, unoriented, Raman Data Processed
Mineral: Chalcocite
Rruff sample: R120113
Ideal chemistry: Cu^1+^_2_S^2-^
Locality: Tsumeb, Namibia
Source: Rob Lavinsky
Description: Black, twinned, elongated blades, associated with calcite. This is low chalcocite
Measured chemistry: Cu_1.98_Ag_0.01_S
Raman shift (cm-1)	intensity
131.215	0
134.108	1.14429
137.001	2.51154
139.893	2.88178
142.786	1.20999
145.679	2.24686
148.571	3.47388
151.464	3.55722
154.357	1.8472
157.25	3.54691
160.142	2.24701
163.035	4.14716
165.928	2.63708
168.82	2.91211
171.713	0.800507
174.606	3.72668
177.498	1.74371
180.391	0.448914
183.284	0.018982
186.177	2.85437
189.069	4.59564
191.962	3.40137
194.855	0.707336
197.747	2.25391
200.64	0.107269
203.533	0.785522
206.425	4.427
209.318	0.876923
212.211	3.35055
215.103	5.16077
217.996	2.15115
220.889	1.80023
223.782	1.40475
226.674	0.627838
229.567	2.13464
232.46	1.21081
235.352	0.801453
238.245	3.78433
241.138	1.70273
244.03	3.43463
246.923	2.9307
249.816	4.19229
252.709	3.48709
255.601	2.34506
258.494	3.1206
261.387	4.8959
264.279	3.61987
267.172	5.88528
270.065	6.80948
272.957	5.07321
275.85	5.99185
278.743	6.85233
281.635	7.67026
284.528	2.659
287.421	4.20435
290.314	4.57477
293.206	4.27212
296.099	3.29889
298.992	3.53195
301.884	1.24075
304.777	3.35654
307.67	3.10877
310.562	1.75381
313.455	3.34766
316.348	3.12424
319.241	4.05679
322.133	1.14185
325.026	2.23157
327.919	2.67792
330.811	1.8197
333.704	2.79486
336.597	3.26691
339.49	3.50662
342.382	2.20264
345.275	1.46222
348.168	1.26856
351.06	1.42273
353.953	1.8938
356.846	1.27506
359.738	0.369598
362.631	0.927856
365.524	0.900391
368.416	2.41538
371.309	0.112885
374.202	0.664398
377.095	0.56601
379.987	1.15738
382.88	0.088043
385.773	0.019104
388.665	1.09518
391.558	0.807892
394.451	0.295532
397.344	2.30582
400.236	0.939789
403.129	1.99838
406.022	1.24658
408.914	0.438232
411.807	1.16037
414.7	3.02286
417.592	0.299561
420.485	0.714355
423.378	1.26727
426.27	0.28418
429.163	0.713684
432.056	1.72986
434.949	3.11908
437.841	0.705017
440.734	2.03491
443.627	3.63464
446.519	4.58746
449.412	2.14545
452.305	2.86115
455.197	3.0788
458.09	1.34589
460.983	0.608826
463.875	3.45935
466.768	3.72943
469.661	6.30347
472.554	4.16724
475.446	4.50787
478.339	2.37433
481.232	4.26868
484.124	3.66742
487.017	1.58942
489.91	3.18011
492.803	0.719238
495.695	2.80743
498.588	3.09015
501.481	2.43799
504.373	1.24194
507.266	1.03821
510.159	3.34869
513.051	2.01819
515.944	2.396
518.837	2.73724
521.73	2.32623
524.622	3.45709
527.515	0.296448
530.408	0.587708
533.3	2.04504
536.193	1.39539
539.086	1.37115
541.978	0.402893
544.871	1.79346
547.764	0.8396
550.656	1.18451
553.549	1.18109
556.442	0.078857
559.335	3.00476
562.227	1.54016
565.12	1.45856
568.013	2.23138
570.905	2.23377
573.798	1.98517
576.691	2.18469
579.583	4.73724
582.476	3.78516
585.369	6.67407
588.261	5.52234
591.154	5.66833
594.047	2.5152
596.94	3.16614
599.832	2.25055
602.725	2.32635
605.618	3.48431
608.51	1.8678
611.403	2.42627
614.296	2.29407
617.188	3.11536
620.081	1.21692
622.974	3.12164
625.867	2.77191
628.759	4.09741
631.652	1.13837
634.545	1.14722
637.437	3.19141
640.33	1.01141
643.223	2.44128
646.115	2.94037
649.008	3.18365
651.901	2.00763
654.794	1.57001
657.686	3.58319
660.579	2.36475
663.472	2.40997
666.364	2.92151
669.257	1.91241
672.15	0.847046
675.043	1.88306
677.935	1.10016
680.828	0.952332
683.721	3.86023
686.613	3.065
689.506	0.620483
692.399	1.45917
695.291	0.619385
698.184	2.23566
701.077	0.049927
703.97	0.091064
706.862	0.955627
709.755	2.81256
712.648	0.561462
715.54	0.106628
718.433	1.41974
721.326	1.91003
724.218	0.593872
727.111	1.78046
730.004	2.59857
732.896	1.93707
735.789	3.9516
738.682	7.44659
741.574	4.07123
744.467	3.17835
747.36	3.16065
750.253	3.67926
753.145	0.391663
756.038	2.1521
758.931	0.034851
761.823	2.66907
764.716	1.13965
767.609	3.46039
770.501	0.706665
773.394	0.658264
776.287	0.469299
779.18	2.047
782.072	0.341553
784.965	0.563599
787.858	2.7456
790.75	4.20935
793.643	2.09265
796.536	2.37921
799.428	0.597046
802.321	3.76941
805.214	3.17603
808.107	2.74524
810.999	2.50629
813.892	0.330933
816.785	2.41577
819.677	3.28241
822.57	3.02502
825.463	2.09753
828.356	3.20911
831.248	3.39691
834.141	2.82452
837.034	2.6958
839.926	3.54114
842.819	1.99652
845.712	3.36615
848.604	2.64325
851.497	3.90185
854.39	1.31158
857.283	4.53619
860.175	1.17175
863.068	2.58795
865.961	3.7456
868.853	1.54077
871.746	1.74048
874.639	1.7821
877.531	2.90503
880.424	0.766724
883.317	4.3479
886.209	2.18689
889.102	2.17468
891.995	0.726868
894.888	2.24579
897.78	1.00983
900.673	1.90222
903.566	0.844666
906.458	2.39337
909.351	0.332214
912.244	2.18774
915.136	0.536621
918.029	2.21454
920.922	0.478333
923.814	1.1286
926.707	2.38562
929.6	1.87164
932.493	1.58881
935.385	3.40955
938.278	2.0025
941.171	2.0401
944.063	1.13989
946.956	1.47516
949.849	2.58917
952.741	1.5036
955.634	3.31085
958.527	3.86353
961.42	1.09271
964.312	4.44165
967.205	3.52435
970.098	3.8819
972.99	2.11774
975.883	0.521973
978.776	2.75897
981.668	2.30823
984.561	0.898621
987.454	1.00568
990.347	0.556885
993.239	2.19214
996.132	2.42432
999.025	3.88519
1001.92	2.26679
1004.81	0.685486
1007.7	1.29669
1010.6	5.22119
1013.49	2.62176
1016.38	2.62708
1019.27	1.60748
1022.17	1.77203
1025.06	3.4292
1027.95	2.23566
1030.84	2.78131
1033.74	0.835022
1036.63	1.27887
1039.52	2.21405
1042.41	3.63361
1045.31	0.709106
1048.2	2.19348
1051.09	3.38684
1053.99	3.43121
1056.88	4.11133
1059.77	4.13043
1062.66	0.763367
1065.56	2.83002
1068.45	1.70416
1071.34	4.14056
1074.23	1.98053
1077.13	1.33459
1080.02	3.52508
1082.91	1.22913
1085.81	2.69281
1088.7	5.93304
1091.59	3.61633
1094.48	1.29071
1097.38	0.830505
1100.27	4.11328
1103.16	1.81891
1106.05	0.966553
1108.95	0.567871
1111.84	0.487732
1114.73	0.868774
1117.62	1.02069
1120.52	1.69318
1123.41	2.73181
1126.3	0.512878
1129.2	3.43378
1132.09	0.800293
1134.98	2.25275
1137.87	4.31
1140.77	4.05353
1143.66	1.46143
1146.55	4.66699
1149.44	4.48309
1152.34	4.45258
1155.23	7.04279
1158.12	5.21106
1161.02	3.63818
1163.91	4.91821
1166.8	4.95416
1169.69	8.41046
1172.59	8.5174
1175.48	8.45947
1178.37	9.95624
1181.27	8.3974
1184.16	5.60596
1187.05	6.50153
1189.94	8.30756
1192.84	6.09241
1195.73	4.28247
1198.62	4.38867
1201.51	7.87024
1204.41	6.55493
1207.3	3.00934
1210.19	3.08777
1213.08	4.60644
1215.98	4.16657
1218.87	1.40283
1221.76	0.547607
1224.65	2.1839
1227.55	0.237488
1230.44	1.65662
1233.33	1.1416
1236.23	3.53851
1239.12	2.01001
1242.01	0.505615
1244.9	0.582581
1247.8	1.38434
1250.69	3.15021
1253.58	3.09399
1256.47	5.97089
1259.37	4.48364
1262.26	2.97852
1265.15	3.7016
1268.05	3.31146
1270.94	2.39386
1273.83	4.7619
1276.72	2.85364
1279.62	1.00519
1282.51	0.097961
