Measurement: Raman, 785 nm, unoriented, Raman Data Processed
Mineral: Chalconatronite
Rruff sample: R070366
Ideal chemistry: Na_2_Cu^2+^(CO_3_)_2_3H_2_O
Locality: Mont Saint-Hilaire, Rouville County, Quebec, Canada
Source: Michael Scott
Description: Blue fine-grained crust
Raman shift (cm-1)	intensity
188.034	0
190.926	10.1849
193.819	9.88409
196.712	34.4647
199.604	30.9982
202.497	6.41589
205.39	20.0151
208.282	24.8126
211.175	8.27448
214.068	23.131
216.961	7.01056
219.853	38.496
222.746	28.0485
225.639	32.4284
228.531	21.9971
231.424	12.7571
234.317	32.3188
237.209	35.5954
240.102	9.90799
242.995	8.7467
245.888	28.6808
248.78	6.61212
251.673	1.75156
254.566	15.1099
257.458	32.6971
260.351	32.3007
263.244	21.1213
266.137	28.5201
269.029	4.95099
271.922	14.6762
274.815	50.389
277.707	9.66159
280.6	36.4681
283.493	11.1166
286.385	25.3615
289.278	6.61148
292.171	30.8432
295.063	2.87042
297.956	57.2552
300.849	41.9697
303.742	36.8965
306.634	16.4447
309.527	62.7752
312.42	12.5415
315.312	78.5827
318.205	67.6149
321.098	62.3658
323.99	85.6296
326.883	89.4176
329.776	69.6313
332.669	63.8952
335.561	39.2222
338.454	47.1926
341.347	42.747
344.239	20.6155
347.132	47.3427
350.025	51.1699
352.918	86.0642
355.81	44.022
358.703	50.8314
361.596	53.4333
364.488	16.6268
367.381	68.0655
370.274	52.264
373.166	3.69626
376.059	21.573
378.952	39.7111
381.844	6.70981
384.737	27.7502
387.63	43.7026
390.523	39.2289
393.415	10.5274
396.308	17.0861
399.201	19.7188
402.093	23.3485
404.986	32.8911
407.879	30.0112
410.772	43.645
413.664	26.2207
416.557	9.14691
419.45	4.0614
422.342	21.4263
425.235	3.70612
428.128	34.3588
431.02	6.84372
433.913	34.8067
436.806	26.8822
439.699	27.7445
442.591	37.4154
445.484	32.9489
448.377	27.451
451.269	14.5813
454.162	24.4375
457.055	12.2265
459.947	20.9248
462.84	28.0711
465.733	12.486
468.625	24.8701
471.518	17.6565
474.411	3.7048
477.304	32.1699
480.196	20.1264
483.089	27.6144
485.982	33.6706
488.874	28.6612
491.767	37.9599
494.66	13.6248
497.553	24.6124
500.445	24.3702
503.338	30.2906
506.231	7.34915
509.123	17.5429
512.016	16.2822
514.909	18.7725
517.802	21.7335
520.694	10.8384
523.587	39.4139
526.48	28.9466
529.372	21.6226
532.265	14.2433
535.158	48.2703
538.05	25.3716
540.943	4.06769
543.836	15.6572
546.729	31.2407
549.621	25.2181
552.514	42.7498
555.407	41.2697
558.299	54.8396
561.192	42.8771
564.085	38.9874
566.977	46.6568
569.87	46.3102
572.763	86.7534
575.655	84.5891
578.548	59.7964
581.441	68.4785
584.333	46.9533
587.226	68.1634
590.119	49.1044
593.012	52.4691
595.904	40.1824
598.797	39.7055
601.69	71.45
604.582	71.4789
607.475	48.8643
610.368	70.2594
613.26	45.2889
616.153	74.7039
619.046	53.162
621.939	57.5865
624.831	52.5356
627.724	73.948
630.617	58.5922
633.509	60.306
636.402	6.17145
639.295	22.8269
642.188	34.7125
645.08	38.207
647.973	17.9297
650.866	0.431915
653.758	13.1719
656.651	13.1297
659.544	51.2058
662.436	2.2832
665.329	35.4497
668.222	10.9532
671.115	56.8281
674.007	27.614
676.9	20.3604
679.793	11.6875
682.685	18.2657
685.578	20.6728
688.471	43.0807
691.363	10.1263
694.256	35.5137
697.149	43.2915
700.042	18.1246
702.934	39.956
705.827	26.444
708.72	37.0031
711.612	12.1138
714.505	4.8273
717.398	54.4887
720.29	20.1563
723.183	53.5782
726.076	44.479
728.968	81.3039
731.861	108.444
734.754	130.154
737.647	105.986
740.539	92.1467
743.432	57.8499
746.325	55.6037
749.217	54.4014
752.11	55.6995
755.003	23.206
757.895	30.1746
760.788	42.0192
763.681	61.7251
766.574	55.4981
769.466	16.2798
772.359	19.0892
775.252	25.4577
778.144	27.1553
781.037	25.8262
783.93	21.1833
786.822	30.932
789.715	23.4587
792.608	4.98526
795.501	20.4202
798.393	8.16412
801.286	2.25598
804.179	48.5703
807.071	23.3824
809.964	32.985
812.857	3.57983
815.75	37.5198
818.642	30.0661
821.535	19.9692
824.428	2.63046
827.32	30.0337
830.213	47.0643
833.106	2.50629
835.998	2.42151
838.891	7.62634
841.784	14.6363
844.677	27.5418
847.569	6.0976
850.462	54.1677
853.355	37.5542
856.247	23.7386
859.14	17.9116
862.033	44.9012
864.925	32.6203
867.818	50.0309
870.711	41.1687
873.604	7.72629
876.496	0.672852
879.389	23.7149
882.282	48.0726
885.174	40.236
888.067	23.8757
890.96	47.546
893.852	31.0918
896.745	45.8406
899.638	62.7821
902.53	44.0436
905.423	28.2426
908.316	3.22598
911.209	29.7933
914.101	10.0617
916.994	8.57272
919.887	3.43771
922.779	33.8189
925.672	38.1805
928.565	60.1335
931.457	27.2686
934.35	48.1489
937.243	50.3512
940.136	23.5807
943.028	17.1054
945.921	9.48581
948.814	32.0498
951.706	55.2442
954.599	37.5709
957.492	23.9563
960.385	23.3947
963.277	36.5937
966.17	60.1481
969.063	44.0757
971.955	11.2272
974.848	39.1135
977.741	38.7201
980.633	53.8334
983.526	3.32639
986.419	41.666
989.312	17.5603
992.204	17.8384
995.097	13.6898
997.99	45.8381
1000.88	35.9634
1003.77	22.3323
1006.67	24.3224
1009.56	60.095
1012.45	32.4986
1015.35	23.0546
1018.24	22.9812
1021.13	19.9731
1024.02	4.92963
1026.92	1.58939
1029.81	7.87778
1032.7	12.8624
1035.6	42.3786
1038.49	39.6039
1041.38	34.1536
1044.27	56.8741
1047.17	42.74
1050.06	33.5581
1052.95	104.391
1055.84	76.7222
1058.74	85.3395
1061.63	45.3381
1064.52	93.5246
1067.41	123.344
1070.31	133.087
1073.2	125.126
1076.09	54.043
1078.98	88.8671
1081.88	73.4262
1084.77	81.1353
1087.66	65.6291
1090.56	69.9227
1093.45	64.7341
1096.34	60.9
1099.23	21.4524
1102.13	4.61703
1105.02	21.0488
1107.91	28.7941
1110.81	27.4871
1113.7	8.96957
1116.59	39.7433
1119.48	7.77158
1122.38	13.6586
1125.27	25.2049
1128.16	7.87723
1131.05	21.3005
1133.95	1.79379
1136.84	15.2411
1139.73	10.9915
1142.62	0.253967
1145.52	29.4551
1148.41	5.32477
1151.3	46.7798
1154.19	52.3311
1157.09	55.9892
1159.98	47.5023
1162.87	23.6518
1165.77	19.6781
1168.66	62.0951
1171.55	9.49347
1174.44	23.3695
1177.34	26.9131
1180.23	0.61496
1183.12	2.9263
1186.02	9.59143
1188.91	26.9969
1191.8	43.8519
1194.69	53.542
1197.59	39.294
1200.48	42.1138
1203.37	36.296
1206.26	26.5164
1209.16	39.8559
1212.05	0.783478
1214.94	51.5099
1217.84	24.6495
1220.73	12.9586
1223.62	44.7441
1226.51	19.6416
1229.41	37.3946
1232.3	19.7705
1235.19	6.38455
1238.08	56.9397
1240.98	4.7908
