Measurement: Raman, 780 nm, unoriented, Raman Data Processed
Mineral: Chalcopyrite
Rruff sample: R050208
Ideal chemistry: Cu^1+^Fe^3+^S^2-^_2_
Locality: Kidd Creek mine, Timmins, Ontario, Canada
Source: Lloyd Twaites
Description: Brass yellow metallic fine-grained massive
Measured chemistry: Cu_1.00_Fe_1.00_S_2.00_
Raman shift (cm-1)	intensity
204.817	0
207.709	0.219056
210.602	0.146955
213.495	0.120051
216.388	0.206908
219.28	0.207847
222.173	0.264886
225.066	0.590033
227.958	0.597595
230.851	0.8224
233.744	1.18581
236.637	1.53706
239.529	1.8776
242.422	2.26309
245.315	3.17549
248.207	3.28351
251.1	3.81205
253.993	3.87139
256.885	3.66628
259.778	3.66156
262.671	3.71394
265.563	3.33803
268.456	3.85217
271.349	4.94841
274.242	5.36415
277.134	5.53531
280.027	6.26102
282.92	6.84252
285.812	7.05647
288.705	6.15084
291.598	3.85445
294.49	1.67098
297.383	1.33992
300.276	1.22505
303.169	1.36481
306.061	1.72253
308.954	1.86621
311.847	2.02375
314.739	2.02016
317.632	1.40269
320.525	0.841475
323.418	0.366462
326.31	0.05815
329.203	0.026644
332.096	0.128596
334.988	0.22412
337.881	0.246942
340.774	0.262065
343.666	0.366672
346.559	0.468724
349.452	0.30114
352.344	0.31759
355.237	0.31822
358.13	0.078216
361.023	0.113014
363.915	0.115785
366.808	0.129101
369.701	0.120428
372.593	0.078645
375.486	0.00826
378.379	0.005693
381.272	0.030313
384.164	0.075653
387.057	0.103417
389.95	0.099995
392.842	0.022623
395.735	0.070062
398.628	0.173131
401.52	0.128679
404.413	0.151023
407.306	0.186466
410.199	0.28934
413.091	0.262606
415.984	0.32233
418.877	0.348798
421.769	0.164382
424.662	0.28837
427.555	0.268919
430.447	0.304792
433.34	0.334355
436.233	0.369151
439.125	0.358521
442.018	0.300566
444.911	0.223833
447.804	0.248714
450.696	0.287956
453.589	0.168954
456.482	0.174633
459.374	0.194943
462.267	0.219067
465.16	0.106435
468.053	0.194431
470.945	0.070058
473.838	0.085195
476.731	0.228472
479.623	0.17847
482.516	0.048735
485.409	0.01692
488.301	0.154036
491.194	0.045766
494.087	0.064199
496.979	0.159297
499.872	0.073708
502.765	0.143639
505.658	0.078331
508.55	0.108731
511.443	0.151067
514.336	0.135483
517.228	0.113294
520.121	0.016563
523.014	0.002653
525.906	0.062706
528.799	0.056009
531.692	0.040008
534.585	0.027954
537.477	0.195712
540.37	0.237556
543.263	0.383314
546.155	0.619908
549.048	0.928366
551.941	1.12029
554.833	1.01624
557.726	0.758703
560.619	0.642931
563.511	0.309555
566.404	0.259752
569.297	0.143974
572.19	0.172839
575.082	0.206539
577.975	0.214522
580.868	0.196516
583.76	0.140619
586.653	0.171585
589.546	0.222034
592.438	0.068182
595.331	0.050447
598.224	0.137143
601.117	0.105316
604.009	0.097397
606.902	0.072945
609.795	0.124512
612.687	0.134549
615.58	0.053135
618.473	0.182635
621.365	0.123966
624.258	0.061451
627.151	0.051811
630.044	0.102002
632.936	0.067505
635.829	0.172709
638.722	0.217808
641.614	0.187836
644.507	0.314644
647.4	0.335909
650.293	0.302692
653.185	0.233236
656.078	0.158587
658.971	0.080703
661.863	0.0832
664.756	0.227489
667.649	0.173671
670.541	0.144221
673.434	0.110368
676.327	0.108995
679.22	0.076191
682.112	0.119001
685.005	0.081109
687.898	0.155493
690.79	0.101518
693.683	0.276538
696.576	0.010986
699.468	0.065472
702.361	0.162839
705.254	0.2175
708.146	0.364743
711.039	0.213181
713.932	0.146864
716.825	0.155379
719.717	0.181735
722.61	0.008715
725.503	0.094565
728.395	0.01856
731.288	0.101028
734.181	0.016896
737.073	0.023987
739.966	0.013787
742.859	0.075925
745.751	0.070885
748.644	0.045901
751.537	0.039874
754.43	0.033439
757.322	0.141026
760.215	0.191203
763.108	0.166794
766	0.193206
768.893	0.373021
771.786	0.177362
774.678	0.199612
777.571	0.300431
780.464	0.210545
783.357	0.359481
786.249	0.345831
789.142	0.471622
792.035	0.347879
794.927	0.553153
797.82	0.539617
800.713	0.491581
803.606	0.550714
806.498	0.613357
809.391	0.591058
812.284	0.673428
815.176	0.639211
818.069	0.721509
820.962	0.757108
823.854	0.758939
826.747	0.824047
829.64	0.933134
832.533	1.01206
835.425	0.955842
838.318	1.0153
841.211	1.0574
844.103	1.03963
846.996	1.07674
849.889	0.873486
852.781	0.926205
855.674	1.00555
858.567	1.0035
861.46	0.990857
864.352	1.00325
867.245	0.911889
870.138	0.891713
873.03	0.969145
875.923	0.80863
878.816	0.808061
881.708	0.692908
884.601	0.577234
887.494	0.520746
890.386	0.406126
893.279	0.376526
896.172	0.242537
899.065	0.190624
901.957	0.188484
904.85	0.165779
907.743	0.107077
910.635	0.078655
913.528	0.062071
916.421	0.040286
919.313	0.026819
922.206	0.045059
925.099	0.030736
927.992	0.020556
930.884	0.067247
933.777	0.011608
936.67	0.044791
939.562	0.050107
942.455	0.003057
945.348	0.058666
948.24	0.001592
951.133	0.104306
954.026	0.015463
956.919	0.001001
959.811	0.172955
962.704	0.093243
965.597	0.174361
968.489	0.169734
971.382	0.142299
974.275	0.151718
977.168	0.109757
980.06	0.116596
982.953	0.199859
985.846	0.062905
988.738	0.159192
991.631	0.177683
994.524	0.151454
997.416	0.164927
1000.31	0.045177
1003.2	0.158938
1006.09	0.129558
1008.99	0.157406
1011.88	0.107966
1014.77	0.096685
1017.66	0.1605
1020.56	0.178718
1023.45	0.094434
1026.34	0.148143
1029.24	0.256476
1032.13	0.240061
1035.02	0.225095
1037.91	0.199115
1040.81	0.197418
1043.7	0.202331
1046.59	0.135905
1049.48	0.198139
1052.38	0.188274
1055.27	0.180406
1058.16	0.22897
1061.06	0.201581
1063.95	0.148307
1066.84	0.081431
1069.73	0.130188
1072.63	0.133555
1075.52	0.110835
1078.41	0.008822
1081.31	0.103824
1084.2	0.008154
1087.09	0.038687
1089.98	0.063797
1092.88	0.116534
1095.77	0.12614
1098.66	0.090275
1101.55	0.009072
1104.45	0.094195
1107.34	0.06427
1110.23	0.051491
1113.12	0.047426
1116.02	0.017543
1118.91	0.105713
1121.8	0.064507
1124.69	0.132179
1127.59	0.108977
1130.48	0.028306
1133.37	0.053411
1136.27	0.073846
1139.16	0.02095
1142.05	0.061326
1144.94	0.20691
1147.84	0.24263
1150.73	0.027911
1153.62	0.125113
1156.52	0.113986
1159.41	0.061514
1162.3	0.028703
1165.19	0.090166
1168.09	0.057266
1170.98	0.061713
1173.87	0.064367
1176.76	0.090544
1179.66	0.084861
1182.55	0.043075
1185.44	0.054112
1188.33	0.06598
1191.23	0.010879
1194.12	0.108971
1197.01	0.091886
1199.9	0.067449
1202.8	0.138453
1205.69	0.164816
1208.58	0.113698
1211.48	0.171777
1214.37	0.153716
1217.26	0.102595
1220.15	0.095965
1223.05	0.099915
1225.94	0.086112
1228.83	0.026253
1231.72	0.049816
1234.62	0.061018
1237.51	0.020056
1240.4	0.176487
1243.3	0.117572
1246.19	0.062643
1249.08	0.015999
1251.97	0.079261
1254.87	0.020636
1257.76	0.088143
1260.65	0.100538
1263.55	0.08111
1266.44	0.052217
1269.33	0.060528
1272.22	0.053398
1275.12	0.060761
1278.01	0.03988
