Measurement: Raman, 785 nm, unoriented, Raman Data Processed
Mineral: Chalcophyllite
Rruff sample: R060702
Ideal chemistry: Cu^2+^_18_Al_2_(As^5+^O_4_)_4_(S^6+^O_4_)_3_(OH)_24_36H_2_O
Locality: Majuba Hill, Pershing County, Nevada, USA
Source: Bob Jenkins
Description: Bluish-green thin hexagonal tablets
Raman shift (cm-1)	intensity
197.22	0
200.113	185.231
203.006	383.535
205.898	674.016
208.791	294.156
211.684	39.2773
214.577	7.66406
217.469	283.184
220.362	200.965
223.255	455.66
226.147	405.957
229.04	143.91
231.933	372.758
234.825	292.051
237.718	400.609
240.611	709.309
243.503	548.719
246.396	387.93
249.289	260.906
252.182	393.102
255.074	490.285
257.967	650.269
260.86	609.168
263.752	701.699
266.645	696.66
269.538	412.871
272.431	177.117
275.323	122.406
278.216	104.453
281.109	672.996
284.001	767.297
286.894	945.633
289.787	631.316
292.679	272.664
295.572	122.82
298.465	113.418
301.358	462.555
304.25	937.254
307.143	1069.38
310.036	1102.02
312.928	745.715
315.821	309.039
318.714	226.484
321.606	14.2148
324.499	394.269
327.392	876.777
330.284	991.695
333.177	955.438
336.07	868.887
338.963	465.758
341.855	355.231
344.748	224.848
347.641	353.977
350.533	610.023
353.426	881.898
356.319	870.258
359.211	560.461
362.104	30.3281
364.997	37.4297
367.89	65.9062
370.782	403.57
373.675	719.398
376.568	928.641
379.46	975.664
382.353	457.359
385.246	43.7734
388.138	150.984
391.031	347.289
393.924	573.414
396.817	733.977
399.709	1034.27
402.602	564.312
405.495	538.711
408.387	115.289
411.28	99.0781
414.173	168.383
417.065	731.234
419.958	792.617
422.851	797.703
425.744	708.398
428.636	501.758
431.529	456.102
434.422	200.234
437.314	278.859
440.207	336.711
443.1	604.93
445.992	632.734
448.885	624.594
451.778	447.867
454.671	238.078
457.563	112.32
460.456	222.5
463.349	438.906
466.241	377.43
469.134	643.195
472.027	532.641
474.919	248.75
477.812	76.9453
480.705	66.7734
483.598	170.953
486.49	131.961
489.383	552.812
492.276	666.562
495.168	613.305
498.061	521.75
500.954	184.273
503.846	62.2656
506.739	235.617
509.632	419.016
512.525	322.68
515.417	509.5
518.31	836.984
521.203	674.047
524.096	614.039
526.988	564.789
529.881	434.93
532.774	401.578
535.666	391.453
538.559	630.031
541.452	654.594
544.344	444.195
547.237	227.312
550.13	151.969
553.023	242.492
555.915	400.797
558.808	544.227
561.701	682.5
564.593	612.797
567.486	364.398
570.379	8.50781
573.271	115.273
576.164	6.09375
579.057	153.773
581.95	529.211
584.842	176.602
587.735	207.812
590.628	270.922
593.52	256.109
596.413	196.57
599.306	156.336
602.198	382.438
605.091	125.031
607.984	184.016
610.876	381.102
613.769	411.828
616.662	191.898
619.555	201.859
622.447	213.703
625.34	146.078
628.233	395.602
631.125	264.789
634.018	317.039
636.911	216.305
639.803	417.656
642.696	353.586
645.589	292.852
648.482	58.1016
651.374	37.2891
654.267	305.875
657.16	268.102
660.052	454.203
662.945	475.656
665.838	105.297
668.73	219.016
671.623	225.562
674.516	682.219
677.409	582.531
680.301	564.164
683.194	370.992
686.087	194.68
688.979	210.445
691.872	113.211
694.765	502.195
697.657	481.391
700.55	721.164
703.443	156.484
706.336	319.438
709.228	167.516
712.121	337.211
715.014	340.68
717.906	459.312
720.799	543.219
723.692	639.078
726.584	212.516
729.477	239.797
732.37	47.7656
735.263	194.094
738.155	285.141
741.048	367.477
743.941	209.883
746.833	154.422
749.726	495.68
752.619	476.023
755.511	697.016
758.404	372.875
761.297	170.344
764.19	368.594
767.082	234.57
769.975	705.18
772.868	175.586
775.76	408.82
778.653	113.141
781.546	4.42188
784.438	182.898
787.331	395.188
790.224	695.719
793.117	558.281
796.009	198.82
798.902	223.875
801.795	23.5156
804.687	121.906
807.58	32.1016
810.473	197.523
813.365	154.453
816.258	113.547
819.151	241.383
822.044	61.0625
824.936	151.289
827.829	337.891
830.722	316.445
833.614	125.672
836.507	465.211
839.4	174.656
842.292	256.195
845.185	324.055
848.078	332.836
850.971	269.469
853.863	245.195
856.756	68.0078
859.649	240.102
862.541	351.703
865.434	138.289
868.327	277.57
871.219	15.3281
874.112	121.945
877.005	243.945
879.898	255.625
882.79	313.211
885.683	203.547
888.576	160.156
891.468	0.203125
894.361	164.57
897.254	129.984
900.146	365.805
903.039	41.3047
905.932	153.961
908.825	369.047
911.717	618.32
914.61	410.5
917.503	138.016
920.395	255.023
923.288	37.6484
926.181	83.7266
929.073	145.562
931.966	220.766
934.859	390.875
937.752	315.531
940.644	215.188
943.537	394.195
946.43	334.375
949.322	397.062
952.215	474.711
955.108	631.742
958	219.125
960.893	377.141
963.786	525.898
966.679	605.586
969.571	304.281
972.464	242.375
975.357	320.914
978.249	574.133
981.142	235.273
984.035	646.812
986.927	418.383
989.82	128.094
992.713	147.508
995.606	110.125
998.498	388.477
1001.39	629.164
1004.28	646.18
1007.18	661.562
1010.07	342.852
1012.96	299.961
1015.85	517.742
1018.75	221.164
1021.64	481.148
1024.53	218.758
1027.42	118.781
1030.32	699.859
1033.21	565.695
1036.1	671.078
1039	398.641
1041.89	484.672
1044.78	486.07
1047.67	356.055
1050.57	423.312
1053.46	235.875
1056.35	259.711
1059.24	433.43
1062.14	576.242
1065.03	109.656
1067.92	95.1094
1070.82	137.961
1073.71	227.344
1076.6	605.172
1079.49	456.461
1082.39	425.836
1085.28	55.7344
1088.17	121.336
1091.07	234.891
1093.96	678.586
1096.85	661.68
1099.74	364
1102.63	772
1105.53	297.562
1108.42	67.4141
1111.31	429.812
1114.21	354.438
1117.1	605.859
1119.99	287.203
1122.88	295.195
1125.78	524.461
1128.67	382.68
1131.56	359.188
1134.45	586.773
1137.35	176.258
1140.24	208.562
1143.13	512.719
1146.03	415.445
1148.92	455.602
1151.81	225.727
1154.7	195.312
1157.6	223.133
1160.49	317.75
1163.38	443.906
1166.28	154.211
1169.17	71.2734
1172.06	121.078
1174.95	20.0234
1177.85	251.766
1180.74	74.625
1183.63	100.562
1186.52	2.82031
1189.42	144.93
1192.31	226.836
1195.2	138.805
1198.09	340.406
1200.99	480.523
1203.88	472.305
1206.77	382.484
1209.66	140.297
1212.56	66.4531
1215.45	297.594
1218.34	627.336
1221.24	313.68
1224.13	621.312
1227.02	503.344
1229.91	362.086
1232.81	386.211
1235.7	376.562
1238.59	646.914
1241.48	657.531
1244.38	602.438
1247.27	449.578
1250.16	219.219
1253.06	205.578
1255.95	282.383
1258.84	394.023
1261.73	74.5078
