Measurement: Raman, 780 nm, unoriented, Raman Data RAW
Mineral: Chalconatronite
Rruff sample: R160004
Ideal chemistry: Na_2_Cu^2+^(CO_3_)_2_3H_2_O
Locality: Rowley mine, Maricopa County, Arizona, USA
Source: Danielle Sotomayor and Keith Wentz
Description: Aggregates of blue crystals. The mineral was found on a metallic mining artifact of copper composition
Raman shift (cm-1)	intensity
90.5957	478.548
93.9705	462.505
97.3453	368.607
100.72	315.654
104.095	278.786
107.47	260.145
110.845	236.749
114.219	221.737
117.594	210.332
120.969	195.712
124.344	189.481
127.719	177.847
131.094	169.769
134.468	160.495
137.843	153.883
141.218	149.331
144.593	140.248
147.968	136.669
151.342	128.664
154.717	123.385
158.092	119.743
161.467	116.132
164.842	112.533
168.216	106.976
171.591	102.808
174.966	100.101
178.341	96.9901
181.716	94.3526
185.09	92.9161
188.465	90.2036
191.84	86.738
195.215	85.622
198.59	84.1993
201.965	80.9405
205.339	81.3682
208.714	79.249
212.089	77.6782
215.464	76.1955
218.839	75.8356
222.214	73.2163
225.588	71.0571
228.963	70.773
232.338	70.0078
235.713	68.8954
239.088	69.4674
242.462	68.0184
245.837	67.8564
249.212	66.1558
252.587	64.8559
255.962	63.1948
259.336	61.5285
262.711	61.8305
266.086	59.4659
269.461	58.6912
272.836	55.7969
276.211	55.2221
279.585	54.8726
282.96	54.1055
286.335	53.7513
289.71	53.0792
293.085	53.2664
296.459	52.5269
299.834	50.9787
303.209	50.9377
306.584	50.6416
309.959	50.5193
313.334	49.7865
316.708	49.6737
320.083	48.7279
323.458	48.235
326.833	48.0876
330.207	47.9088
333.582	46.95
336.957	47.0665
340.332	46.3562
343.707	45.7876
347.082	45.7398
350.456	45.3099
353.831	44.8229
357.206	44.9126
360.581	44.3571
363.956	43.7691
367.33	43.2813
370.705	42.9359
374.08	43.0139
377.455	41.6433
380.83	42.2268
384.205	41.925
387.579	41.9345
390.954	41.3383
394.329	41.4152
397.704	41.5187
401.079	41.3954
404.453	41.1516
407.828	40.0203
411.203	40.5292
414.578	40.3572
417.953	39.9299
421.327	40.2715
424.702	40.0942
428.077	40.4081
431.452	40.7959
434.827	39.4326
438.202	40.5697
441.576	39.5912
444.951	40.2927
448.326	40.4903
451.701	40.7662
455.076	40.4872
458.45	40.2354
461.825	39.7434
465.2	40.1854
468.575	39.856
471.95	39.7125
475.325	40.4131
478.699	40.1809
482.074	40.2458
485.449	39.805
488.824	40.066
492.199	40.0034
495.573	40.4072
498.948	40.0971
502.323	39.9297
505.698	39.862
509.073	39.5876
512.447	39.8647
515.822	39.9399
519.197	38.6888
522.572	39.2681
525.947	39.3364
529.322	38.9952
532.696	39.4748
536.071	38.7622
539.446	38.7131
542.821	38.6678
546.196	38.3442
549.57	39.2642
552.945	38.3758
556.32	38.9442
559.695	38.5435
563.07	38.8075
566.444	39.2055
569.819	38.8318
573.194	38.3177
576.569	38.8886
579.944	38.3406
583.319	38.7446
586.693	38.6005
590.068	38.7648
593.443	38.5618
596.818	38.212
600.193	38.3924
603.567	38.6002
606.942	38.4077
610.317	39.0525
613.692	38.3967
617.067	38.2589
620.442	38.8481
623.816	38.0068
627.191	38.677
630.566	38.1722
633.941	37.8838
637.316	38.7188
640.69	38.4248
644.065	38.9841
647.44	38.2687
650.815	38.5812
654.19	38.2066
657.564	38.853
660.939	38.4261
664.314	38.812
667.689	38.9471
671.064	38.0773
674.439	38.7353
677.813	38.6408
681.188	39.0804
684.563	38.9579
687.938	38.9809
691.313	38.8383
694.688	39.5222
698.062	38.9325
701.437	39.928
704.812	39.6691
708.187	39.2576
711.562	39.3029
714.936	39.5472
718.311	40.8778
721.686	40.4809
725.061	40.4701
728.436	40.1617
731.81	40.4105
735.185	41.0622
738.56	40.6086
741.935	41.1183
745.31	41.5713
748.684	40.8837
752.059	40.963
755.434	41.4185
758.809	40.9802
762.184	41.3563
765.559	41.5709
768.933	42.4603
772.308	41.9719
775.683	41.3154
779.058	42.066
782.433	41.8278
785.808	41.8665
789.182	41.874
792.557	42.8554
795.932	42.3011
799.307	42.6489
802.682	42.9505
806.056	42.4742
809.431	42.7397
812.806	43.1159
816.181	42.9681
819.556	43.2397
822.93	43.3538
826.305	43.3976
829.68	43.6786
833.055	43.6494
836.43	43.1278
839.804	44.4073
843.179	44.9602
846.554	44.6902
849.929	44.5708
853.304	44.5727
856.679	44.5195
860.053	45.3819
863.428	45.2035
866.803	45.354
870.178	45.4566
873.553	45.5237
876.927	46.048
880.302	45.3381
883.677	45.8539
887.052	45.1348
890.427	46.1208
893.802	46.2098
897.176	46.698
900.551	46.9396
903.926	47.0952
907.301	47.0418
910.676	47.4327
914.05	47.3296
917.425	47.4025
920.8	48.4275
924.175	47.8314
927.55	47.5453
930.924	48.4336
934.299	48.1417
937.674	49.0733
941.049	48.6889
944.424	49.3785
947.799	49.4756
951.173	49.0352
954.548	48.6431
957.923	49.9951
961.298	49.2467
964.673	49.7989
968.047	49.8899
971.422	50.0973
974.797	50.0943
978.172	50.3408
981.547	50.0623
984.922	50.0801
988.296	50.9553
991.671	50.9366
995.046	51.1008
998.421	50.3611
1001.8	51.4726
1005.17	50.875
1008.54	51.3758
1011.92	51.4135
1015.29	51.9973
1018.67	52.258
1022.04	52.0201
1025.42	53.2997
1028.79	52.6857
1032.17	53.1797
1035.54	54.3937
1038.92	53.1206
1042.29	53.7227
1045.67	53.4621
1049.04	53.8843
1052.42	55.1074
1055.79	54.8389
1059.17	55.0588
1062.54	55.298
1065.92	55.9422
1069.29	55.5992
1072.67	55.0628
1076.04	55.41
1079.42	56.0706
1082.79	55.4725
1086.17	56.2447
1089.54	55.6839
1092.92	56.0471
1096.29	55.5312
1099.66	55.7039
1103.04	56.513
1106.41	55.7918
1109.79	56.1277
1113.16	56.4941
1116.54	56.3865
1119.91	56.7994
1123.29	56.5744
1126.66	57.4688
1130.04	57.2306
1133.41	56.7388
1136.79	57.8227
1140.16	58.7515
1143.54	58.2958
1146.91	58.7152
1150.29	59.4841
1153.66	59.0358
1157.04	59.9081
1160.41	59.5994
1163.79	61.1626
1167.16	60.6952
1170.54	60.3265
1173.91	60.9718
1177.29	61.2007
1180.66	61.8143
1184.04	60.9996
1187.41	62.1736
1190.79	62.5394
1194.16	61.9055
1197.54	62.8515
1200.91	63.0175
1204.28	63.2037
1207.66	63.7905
1211.03	64.5265
1214.41	64.3629
1217.78	64.1529
1221.16	64.5965
1224.53	64.6496
1227.91	65.0488
1231.28	65.4555
1234.66	65.6895
1238.03	65.4345
1241.41	66.2036
1244.78	66.0841
1248.16	66.1666
1251.53	66.189
1254.91	66.1718
1258.28	67.8078
1261.66	67.5809
1265.03	68.2313
1268.41	67.1709
1271.78	68.0038
1275.16	68.5977
1278.53	68.8202
1281.9	69.8429
