Measurement: Raman, 780 nm, unoriented, Raman Data Processed
Mineral: Chalcanthite
Rruff sample: R050293
Ideal chemistry: Cu^2+^S^6+^O_4_5H_2_O
Locality: 79 mine, 4th level, Hayden, Gila County, Arizona, USA
Source: George Godas, John Callahan
Description: Blue fibrous crust
Measured chemistry: Cu_1.00_S_1.00_O_4_Â·5H_2_O
Raman shift (cm-1)	intensity
109.397	0
112.772	2.32913
116.147	6.2482
119.522	0.721664
122.897	8.38092
126.272	12.257
129.646	7.50903
133.021	2.91722
136.396	10.1199
139.771	8.66766
143.146	3.21608
146.52	0.677177
149.895	8.25121
153.27	1.80896
156.645	0.776398
160.02	1.44904
163.395	1.8456
166.769	10.8785
170.144	6.72851
173.519	3.49191
176.894	11.6885
180.269	5.411
183.643	11.2026
187.018	3.50746
190.393	13.036
193.768	13.73
197.143	6.85183
200.518	9.32507
203.892	14.4607
207.267	4.49437
210.642	6.30611
214.017	11.881
217.392	3.4032
220.766	6.68739
224.141	8.27506
227.516	2.24708
230.891	8.0085
234.266	9.57957
237.641	7.58691
241.015	6.99912
244.39	12.4574
247.765	7.22402
251.14	7.21249
254.515	2.90157
257.889	9.33886
261.264	16.4374
264.639	5.24796
268.014	14.398
271.389	12.268
274.764	15.3874
278.138	9.52124
281.513	8.75826
284.888	8.94698
288.263	8.49886
291.638	2.23243
295.012	9.89958
298.387	0.161701
301.762	2.17822
305.137	6.26421
308.512	1.69161
311.887	3.35162
315.261	2.83821
318.636	6.57232
322.011	4.61078
325.386	3.43104
328.761	6.85149
332.135	8.69635
335.51	1.22909
338.885	6.36133
342.26	5.10962
345.635	4.28077
349.01	0.831741
352.384	2.37322
355.759	3.96325
359.134	1.66116
362.509	5.64501
365.884	6.08061
369.258	1.83339
372.633	2.76503
376.008	5.99345
379.383	0.101814
382.758	0.756832
386.132	3.92431
389.507	3.40185
392.882	3.22583
396.257	4.10477
399.632	6.62768
403.007	5.04934
406.381	2.74376
409.756	6.38761
413.131	6.84063
416.506	7.34225
419.881	8.27743
423.255	9.17888
426.63	8.74933
430.005	10.2109
433.38	9.1533
436.755	14.665
440.13	14.1427
443.504	15.7325
446.879	14.1329
450.254	13.6755
453.629	17.4998
457.004	16.3161
460.378	10.9506
463.753	13.0006
467.128	5.56978
470.503	12.5895
473.878	6.09522
477.252	1.48364
480.627	5.1387
484.002	2.3105
487.377	3.02031
490.752	0.443802
494.127	7.59341
497.501	7.3503
500.876	8.07311
504.251	6.99095
507.626	5.86548
511.001	2.0929
514.375	3.28833
517.75	6.0379
521.125	7.98511
524.5	9.30728
527.875	5.51992
531.25	5.07738
534.624	3.95152
537.999	4.82295
541.374	0.987637
544.749	1.43545
548.124	9.83538
551.499	10.3266
554.873	3.73478
558.248	6.98792
561.623	8.50824
564.998	7.76685
568.373	5.47515
571.747	7.37003
575.122	7.84356
578.497	9.58235
581.872	4.95564
585.247	8.43001
588.621	6.61737
591.996	13.261
595.371	11.6188
598.746	2.68498
602.121	9.0271
605.495	6.52385
608.87	4.86538
612.245	5.13631
615.62	9.93134
618.995	9.90436
622.37	4.60371
625.744	0.645725
629.119	6.29172
632.494	3.66169
635.869	0.502316
639.244	3.04486
642.619	0.334183
645.993	6.24916
649.368	5.24258
652.743	5.69237
656.118	1.52398
659.493	6.40621
662.867	3.64632
666.242	6.18318
669.617	6.45026
672.992	6.83271
676.367	7.82594
679.741	5.37407
683.116	5.73912
686.491	7.30091
689.866	4.8905
693.241	4.56319
696.615	7.43066
699.99	4.36601
703.365	2.71613
706.74	4.61118
710.115	0.270214
713.49	5.37476
716.864	3.22965
720.239	5.99321
723.614	9.17967
726.989	3.44842
730.364	8.82169
733.739	9.34061
737.113	5.6463
740.488	9.62604
743.863	7.64507
747.238	4.45032
750.613	12.5316
753.987	10.9974
757.362	6.2509
760.737	5.89748
764.112	3.7121
767.487	2.55142
770.861	8.6709
774.236	3.37255
777.611	2.15139
780.986	3.10221
784.361	8.80523
787.736	2.53302
791.11	6.04699
794.485	8.42442
797.86	4.26725
801.235	4.79459
804.61	10.8815
807.985	6.46841
811.359	7.58218
814.734	8.06488
818.109	9.33413
821.484	7.18044
824.859	7.36846
828.233	0.562004
831.608	6.2075
834.983	4.99139
838.358	4.04036
841.733	6.85276
845.107	6.7601
848.482	3.94348
851.857	5.06638
855.232	5.25629
858.607	1.97349
861.982	3.96404
865.356	8.99916
868.731	5.26816
872.106	1.52364
875.481	3.24646
878.856	2.59368
882.231	0.326183
885.605	3.09068
888.98	2.89749
892.355	6.72303
895.73	3.02905
899.105	2.59414
902.479	1.22192
905.854	4.39262
909.229	4.38945
912.604	3.70385
915.979	2.88236
919.353	1.49445
922.728	7.90602
926.103	1.14849
929.478	0.657303
932.853	5.62081
936.227	8.58769
939.602	4.72655
942.977	1.37289
946.352	1.45271
949.727	0.157753
953.102	5.95131
956.476	3.82085
959.851	6.25118
963.226	8.47494
966.601	15.1388
969.976	29.0366
973.351	42.6041
976.725	63.7485
980.1	68.2978
983.475	55.5466
986.85	19.171
990.225	8.26514
993.599	8.26423
996.974	5.10135
1000.35	3.67957
1003.72	4.23569
1007.1	10.0222
1010.47	3.81915
1013.85	11.6771
1017.22	0.711197
1020.6	6.32678
1023.97	3.02761
1027.35	0.526859
1030.72	4.15034
1034.1	10.0783
1037.47	3.77553
1040.85	5.71822
1044.22	1.73989
1047.6	6.85834
1050.97	1.23108
1054.35	8.09267
1057.72	10.7223
1061.1	1.23197
1064.47	1.78501
1067.85	9.28204
1071.22	8.91063
1074.6	7.07149
1077.97	5.52073
1081.35	11.3726
1084.72	5.25427
1088.09	2.73058
1091.47	5.26193
1094.84	7.6541
1098.22	5.42752
1101.59	1.74576
1104.97	7.45648
1108.34	8.85129
1111.72	3.24181
1115.09	13.8387
1118.47	11.363
1121.84	0.1651
1125.22	4.32419
1128.59	10.0625
1131.97	9.76552
1135.34	7.87347
1138.72	12.6324
1142.09	10.4339
1145.47	6.49176
1148.84	8.30916
1152.22	4.87236
1155.59	0.094604
1158.96	7.47829
1162.34	6.38692
1165.71	4.14904
1169.09	5.65152
1172.46	0.88776
1175.84	7.1014
1179.21	12.2535
1182.59	9.25029
1185.96	6.86163
1189.34	8.52074
1192.71	4.05637
1196.09	2.413
1199.46	8.34503
1202.84	5.03452
1206.21	6.33535
1209.59	8.828
1212.96	4.01141
1216.34	1.08461
1219.71	2.51374
1223.09	3.80565
1226.46	8.84158
1229.84	7.67613
1233.21	3.69121
1236.59	0.619591
1239.96	3.15772
1243.34	8.22633
1246.71	2.6427
1250.09	0.522942
1253.46	7.35318
1256.84	4.4209
1260.21	9.144
1263.59	6.01966
1266.96	5.79033
1270.33	8.89584
1273.71	5.11683
