Measurement: Raman, 780 nm, unoriented, Raman Data Processed
Mineral: Chalcopyrite
Rruff sample: R050559
Ideal chemistry: Cu^1+^Fe^3+^S^2-^_2_
Locality: Recuerdo Vein, Haunzala mine, Huallanca District, Dos de Mayo Province, Huanuco Department, Peru
Source: Dave Bunk Minerals
Description: Brass-yellow striated crystals
Measured chemistry: Cu^1+^_1.00_Fe^3+^_1.00_S_2.00_
Raman shift (cm-1)	intensity
134.01	0
136.902	2.45971
139.795	7.65358
142.688	0.753372
145.58	4.25486
148.473	1.93356
151.366	4.14661
154.258	3.50033
157.151	1.20775
160.044	0.87928
162.936	2.83846
165.829	5.51903
168.722	7.04148
171.615	6.79929
174.507	8.02977
177.4	4.39526
180.293	8.50676
183.185	2.99164
186.078	2.41539
188.971	0.287457
191.863	1.30396
194.756	0.97818
197.649	1.67096
200.542	1.54148
203.434	2.22723
206.327	4.12317
209.22	3.37599
212.112	5.34371
215.005	3.3936
217.898	4.00705
220.791	6.93279
223.683	8.66887
226.576	7.94449
229.469	7.40081
232.361	8.45115
235.254	9.85748
238.147	9.71915
241.039	10.3787
243.932	14.7581
246.825	17.6334
249.718	13.8029
252.61	14.6178
255.503	14.7762
258.396	13.4094
261.288	11.8407
264.181	12.3275
267.074	18.3538
269.966	24.1636
272.859	34.9797
275.752	41.6933
278.644	46.274
281.537	54.1311
284.43	61.7125
287.322	61.8802
290.215	47.93
293.108	24.2482
296.001	10.5302
298.893	2.88883
301.786	3.05668
304.679	1.92499
307.571	1.84877
310.464	0.782326
313.357	4.79985
316.25	6.15366
319.142	4.46563
322.035	6.31155
324.928	2.2429
327.82	2.51657
330.713	3.10547
333.606	5.20349
336.498	3.8606
339.391	0.085133
342.284	1.30563
345.176	4.52724
348.069	2.3395
350.962	2.76884
353.855	1.49764
356.747	0.177406
359.64	0.197117
362.533	2.40564
365.425	2.30181
368.318	0.170361
371.211	3.03655
374.103	2.7256
376.996	2.25839
379.889	1.04788
382.782	2.23906
385.674	0.949171
388.567	1.18629
391.46	3.91562
394.352	1.59297
397.245	1.86648
400.138	0.426615
403.031	4.08218
405.923	1.96349
408.816	0.494343
411.709	7.82805
414.601	4.35832
417.494	2.74695
420.387	4.18635
423.279	3.97956
426.172	5.67313
429.065	0.250826
431.957	1.42489
434.85	2.9185
437.743	0.127132
440.636	2.56785
443.528	4.49233
446.421	1.08293
449.314	3.35845
452.206	2.80356
455.099	4.40188
457.992	0.291004
460.884	2.20655
463.777	5.04989
466.67	2.15043
469.562	5.12815
472.455	1.33278
475.348	3.10749
478.241	6.68053
481.133	4.32616
484.026	3.24606
486.919	3.20714
489.811	4.15319
492.704	6.33481
495.597	6.18972
498.49	4.15691
501.382	4.09404
504.275	1.80178
507.168	0.569609
510.06	3.37448
512.953	0.354691
515.846	3.19902
518.738	2.0765
521.631	2.79735
524.524	4.51407
527.417	1.80549
530.309	6.62405
533.202	5.00194
536.095	3.47488
538.987	4.16743
541.88	3.15699
544.773	1.6977
547.665	2.82902
550.558	2.66751
553.451	4.9836
556.343	3.81511
559.236	2.99113
562.129	0.086447
565.021	7.48535
567.914	2.43201
570.807	4.30075
573.7	5.53347
576.592	4.31378
579.485	3.18723
582.378	4.00723
585.27	0.989853
588.163	4.71199
591.056	6.50226
593.948	0.652269
596.841	0.160114
599.734	6.03744
602.627	1.80114
605.519	6.23127
608.412	3.91036
611.305	4.66316
614.197	2.28445
617.09	1.8727
619.983	1.76943
622.875	3.72609
625.768	0.567432
628.661	1.24974
631.554	4.96423
634.446	4.95549
637.339	0.242302
640.232	2.362
643.124	0.252037
646.017	2.14159
648.91	4.4288
651.803	1.901
654.695	8.00832
657.588	1.13198
660.481	4.70428
663.373	1.86374
666.266	1.35143
669.159	1.81743
672.051	2.95761
674.944	4.6907
677.837	4.21422
680.73	4.45781
683.622	3.33604
686.515	3.36253
689.408	1.91556
692.3	3.73281
695.193	3.94071
698.086	2.44146
700.978	1.76678
703.871	1.96517
706.764	5.69439
709.656	0.733316
712.549	5.92105
715.442	2.78795
718.335	6.80559
721.227	1.22623
724.12	2.96339
727.013	7.78903
729.905	1.32546
732.798	1.8849
735.691	3.94784
738.583	0.37253
741.476	1.52357
744.369	1.89108
747.261	4.39031
750.154	2.68963
753.047	1.11249
755.94	3.16362
758.832	0.305077
761.725	4.20491
764.618	4.3493
767.51	1.37631
770.403	2.65126
773.296	2.71368
776.188	2.08291
779.081	3.9787
781.974	3.67822
784.867	3.50784
787.759	1.36674
790.652	1.63916
793.545	2.98901
796.437	3.75764
799.33	0.748854
802.223	3.79361
805.115	3.94702
808.008	6.45822
810.901	3.92766
813.794	4.82458
816.686	4.80098
819.579	1.81974
822.472	2.75977
825.364	7.42548
828.257	2.85362
831.15	6.01169
834.043	1.5482
836.935	2.99148
839.828	3.02146
842.721	4.76808
845.613	3.66915
848.506	5.52146
851.399	4.13193
854.291	4.32737
857.184	3.98146
860.077	5.25753
862.97	4.47463
865.862	3.11545
868.755	7.8238
871.648	3.99563
874.54	7.46823
877.433	4.68197
880.326	4.41873
883.218	5.75392
886.111	3.61389
889.004	2.26276
891.896	0.011929
894.789	1.59795
897.682	3.31164
900.574	0.896523
903.467	0.331413
906.36	3.19459
909.253	1.81301
912.145	5.24938
915.038	1.44931
917.931	0.165745
920.823	4.3785
923.716	0.941004
926.609	1.69994
929.501	2.39261
932.394	1.04793
935.287	2.21691
938.18	1.26495
941.072	3.90065
943.965	2.31421
946.858	1.71801
949.75	2.40288
952.643	1.2927
955.536	2.65258
958.428	0.967855
961.321	5.08532
964.214	3.34225
967.107	4.18726
969.999	4.05919
972.892	2.55342
975.785	3.02041
978.677	2.31555
981.57	1.22684
984.463	6.53737
987.356	2.17154
990.248	4.20813
993.141	4.32691
996.034	1.61534
998.926	1.97548
1001.82	4.53997
1004.71	5.36723
1007.6	4.93696
1010.5	4.87176
1013.39	2.44367
1016.28	3.46477
1019.17	0.967093
1022.07	2.65684
1024.96	1.70756
1027.85	1.5542
1030.75	5.60065
1033.64	7.2943
1036.53	4.13925
1039.42	3.40871
1042.32	3.59842
1045.21	2.44396
1048.1	4.07053
1050.99	5.61942
1053.89	6.19825
1056.78	2.52575
1059.67	7.88517
1062.57	1.93957
1065.46	3.42806
1068.35	0.04567
1071.24	4.39724
1074.14	1.54164
1077.03	1.23829
1079.92	1.81923
1082.81	2.61799
1085.71	1.26511
1088.6	3.68589
1091.49	2.06365
1094.38	5.59805
1097.28	3.30089
1100.17	1.82067
1103.06	3.40133
1105.96	1.3399
1108.85	1.31745
1111.74	4.13397
1114.63	2.01202
1117.53	3.77749
1120.42	1.88972
1123.31	4.68825
1126.2	3.88271
1129.1	2.31373
1131.99	4.55175
1134.88	4.80292
1137.78	0.453361
1140.67	2.999
1143.56	0.271683
1146.45	2.62827
1149.35	5.65955
1152.24	4.12896
1155.13	0.639007
1158.03	2.13296
1160.92	1.64435
1163.81	2.90099
1166.7	1.87444
1169.6	4.85911
1172.49	1.5238
1175.38	1.17336
1178.27	3.2329
1181.17	2.54165
1184.06	4.47618
1186.95	6.44886
1189.84	3.62711
1192.74	2.80822
1195.63	0.4348
1198.52	3.17016
1201.41	3.84837
1204.31	4.32784
1207.2	3.78514
1210.09	4.31489
1212.99	4.01759
1215.88	3.32932
1218.77	3.36658
1221.66	3.75006
1224.56	3.0062
1227.45	0.155903
1230.34	1.23673
1233.23	5.52167
1236.13	2.78025
1239.02	6.29899
1241.91	3.87105
1244.81	6.09022
1247.7	2.25162
1250.59	4.0445
1253.48	0.302098
1256.38	3.43681
1259.27	7.71143
1262.16	2.16404
1265.05	2.40579
1267.95	4.26697
1270.84	3.62711
1273.73	4.18536
1276.62	7.39465
1279.52	6.9593
1282.41	6.46139
1285.3	4.25235
