Measurement: Raman, 780 nm, unoriented, Raman Data Processed
Mineral: Chalcomenite
Rruff sample: R100123
Ideal chemistry: Cu^2+^Se^4+^O_3_2H_2_O
Locality: Baccu Locci mine, Villaputen, Sardinia
Source: William W. Pinch
Description: Blue tabular crystals associated with colorless bladed orlandiite, R100122, and colorless anglesite.
Raman shift (cm-1)	intensity
150.87	0
153.763	0.67754
156.655	0.922345
159.548	1.20965
162.441	0.056754
165.333	2.2119
168.226	0.99089
171.119	1.77183
174.012	2.00473
176.904	0.891152
179.797	2.20304
182.69	0.697268
185.582	1.47245
188.475	1.15045
191.368	0.128636
194.261	0.084663
197.153	1.64531
200.046	1.22067
202.939	1.00693
205.831	1.93803
208.724	1.86443
211.617	1.78266
214.509	1.70797
217.402	2.41265
220.295	2.50406
223.188	0.96718
226.08	2.12046
228.973	2.74313
231.866	1.81284
234.758	0.322353
237.651	2.99222
240.544	2.08591
243.436	2.89173
246.329	3.12446
249.222	1.64835
252.114	1.06141
255.007	1.23212
257.9	0.71572
260.793	1.99711
263.685	1.4023
266.578	2.40054
269.471	1.02587
272.363	0.955153
275.256	2.32516
278.149	0.867043
281.041	2.29299
283.934	0.516554
286.827	2.22257
289.719	2.32127
292.612	2.40683
295.505	0.911251
298.398	0.662547
301.29	1.73698
304.183	1.99154
307.076	1.04661
309.968	2.67588
312.861	1.04527
315.754	2.53298
318.647	0.918885
321.539	0.002779
324.432	1.4238
327.325	0.039741
330.217	0.241737
333.11	0.305216
336.003	0.592492
338.895	0.017107
341.788	1.78384
344.681	1.86198
347.574	0.403363
350.466	0.76524
353.359	1.12731
356.252	0.158028
359.144	0.921816
362.037	0.954009
364.93	0.244852
367.822	0.082301
370.715	1.77228
373.608	1.33379
376.5	1.60288
379.393	0.93083
382.286	1.56081
385.179	1.6837
388.071	0.401687
390.964	1.56244
393.857	0.626641
396.749	1.26867
399.642	0.030671
402.535	0.650821
405.427	1.08821
408.32	0.714705
411.213	2.91419
414.106	0.716604
416.998	0.82695
419.891	1.64557
422.784	0.14803
425.676	1.66895
428.569	1.39135
431.462	0.730004
434.354	1.05877
437.247	0.152632
440.14	1.4216
443.033	1.13329
445.925	1.14037
448.818	1.26673
451.711	0.6487
454.603	1.15411
457.496	0.856034
460.389	2.24766
463.281	0.343399
466.174	0.863181
469.067	1.19658
471.959	1.25976
474.852	1.6034
477.745	0.398693
480.638	1.63367
483.53	0.355152
486.423	0.468164
489.316	0.89474
492.208	0.075869
495.101	1.2956
497.994	1.62548
500.887	0.220741
503.779	0.619677
506.672	2.06886
509.565	1.2383
512.457	1.15596
515.35	1.96564
518.243	1.35847
521.135	1.38038
524.028	2.554
526.921	1.29789
529.813	0.865295
532.706	0.96998
535.599	2.05771
538.492	1.83063
541.384	0.584458
544.277	0.942942
547.17	2.28469
550.062	0.568373
552.955	0.032417
555.848	1.11654
558.74	0.47412
561.633	1.30388
564.526	0.0418
567.418	1.89427
570.311	1.54367
573.204	2.24459
576.097	1.1615
578.989	0.907537
581.882	0.494979
584.775	0.892844
587.667	0.559646
590.56	0.690157
593.453	0.930037
596.346	0.34868
599.238	1.68262
602.131	0.276381
605.024	1.12391
607.916	1.97461
610.809	0.554089
613.702	0.299716
616.594	2.48869
619.487	1.37304
622.38	1.48177
625.273	1.48499
628.165	1.1404
631.058	0.571869
633.951	0.566593
636.843	0.165179
639.736	1.37044
642.629	1.23115
645.521	1.4515
648.414	0.952086
651.307	1.16152
654.199	1.39143
657.092	0.695105
659.985	1.00205
662.878	2.24517
665.77	0.468839
668.663	1.88283
671.556	0.811209
674.448	0.067628
677.341	0.746027
680.234	1.02033
683.126	1.25374
686.019	0.980353
688.912	1.1233
691.805	2.2298
694.697	1.58326
697.59	1.40114
700.483	1.23368
703.375	0.551263
706.268	1.65603
709.161	0.757524
712.053	0.473015
714.946	1.23533
717.839	0.292708
720.731	1.69561
723.624	0.966533
726.517	0.993856
729.41	1.01414
732.302	0.348454
735.195	0.630353
738.088	1.11375
740.98	0.747399
743.873	1.70717
746.766	0.843596
749.659	1.27037
752.551	1.65618
755.444	0.173836
758.337	2.2695
761.229	0.648427
764.122	1.2537
767.015	0.089147
769.907	0.78069
772.8	0.40305
775.693	1.03878
778.586	1.14357
781.478	2.10489
784.371	0.193397
787.264	0.494558
790.156	1.59754
793.049	0.594576
795.942	0.585322
798.834	1.11521
801.727	0.769842
804.62	0.980499
807.513	1.85485
810.405	1.9505
813.298	0.062043
816.191	1.4939
819.083	1.55399
821.976	1.94443
824.869	1.36121
827.761	2.05246
830.654	1.51137
833.547	1.65335
836.439	1.20046
839.332	1.02331
842.225	1.28978
845.118	0.814614
848.01	0.010173
850.903	0.454097
853.796	0.325511
856.688	1.19565
859.581	0.340238
862.474	1.82688
865.366	0.527156
868.259	0.18159
871.152	0.823508
874.044	1.34558
876.937	1.77908
879.83	0.865126
882.723	1.0269
885.615	1.08657
888.508	0.476553
891.401	1.64029
894.293	0.890324
897.186	2.33931
900.079	0.767038
902.971	0.041542
905.864	0.417326
908.757	2.01379
911.65	2.34513
914.542	0.199137
917.435	0.441496
920.328	0.953299
923.22	0.630204
926.113	1.8477
929.006	1.06909
931.899	2.12902
934.791	0.855441
937.684	0.805365
940.577	1.97786
943.469	1.84873
946.362	1.69223
949.255	2.31227
952.147	2.23321
955.04	0.621528
957.933	1.01388
960.825	0.301184
963.718	1.84567
966.611	0.574028
969.504	0.347603
972.396	1.82166
975.289	0.048606
978.182	0.533977
981.074	1.33001
983.967	2.27315
986.86	1.93597
989.752	1.50004
992.645	1.22083
995.538	1.3795
998.431	1.96013
1001.32	1.87483
1004.22	0.302832
1007.11	1.90731
1010	1.76212
1012.89	0.236323
1015.79	2.20251
1018.68	0.618896
1021.57	0.921619
1024.46	1.93274
1027.36	1.70528
1030.25	0.341873
1033.14	0.718777
1036.04	0.707656
1038.93	1.25496
1041.82	1.13689
1044.71	1.19354
1047.61	1.69169
1050.5	0.303312
1053.39	0.722476
1056.29	1.99529
1059.18	0.665042
1062.07	1.31088
1064.96	0.558219
1067.86	1.50396
1070.75	0.13263
1073.64	1.4181
1076.53	0.576828
1079.43	0.633617
1082.32	0.949222
1085.21	1.58301
1088.1	0.884202
1091	1.55715
1093.89	0.08127
1096.78	0.664504
1099.67	1.15623
1102.57	0.75737
1105.46	0.506202
1108.35	1.35794
1111.25	0.288302
1114.14	1.87939
1117.03	1.59726
1119.92	1.51125
1122.82	1.21747
1125.71	0.737524
1128.6	1.22084
1131.49	0.95352
1134.39	1.55566
1137.28	1.10766
1140.17	2.32604
1143.07	1.72297
1145.96	0.463141
1148.85	1.3232
1151.74	0.190213
1154.64	0.534932
1157.53	2.15848
1160.42	2.59508
1163.31	0.769934
1166.21	2.00999
1169.1	0.364644
1171.99	2.29054
1174.88	0.986342
1177.78	1.50256
1180.67	0.935933
1183.56	1.44857
1186.46	1.00111
1189.35	0.97811
1192.24	1.21455
1195.13	1.18948
1198.03	1.09692
1200.92	1.00462
1203.81	1.75501
1206.7	1.76931
1209.6	0.685961
1212.49	1.5867
1215.38	0.79807
1218.28	1.07613
1221.17	1.10637
1224.06	2.83918
1226.95	0.469337
1229.85	0.458045
1232.74	0.152517
1235.63	0.953261
1238.53	1.93436
1241.42	1.61638
1244.31	2.46684
1247.2	1.87858
1250.1	0.066579
1252.99	1.00839
1255.88	0.996614
1258.77	2.45337
1261.67	1.45216
1264.56	0.519042
1267.45	0.211306
1270.34	1.56491
1273.24	0.774051
1276.13	2.09789
1279.02	1.49803
1281.91	0.701551
1284.81	0
