Measurement: Raman, 532 nm, unoriented, Raman Data Processed
Mineral: Chalcocite
Rruff sample: R070730
Ideal chemistry: Cu^1+^_2_S^2-^
Locality: La Mesa, Chihuahua, Mexico
Source: Michael Scott
Description: Dark gray rounded metallic grains associated with ajoite
Measured chemistry: Cu_1.97_Ag_0.01_S
Raman shift (cm-1)	intensity
132.662	0
136.037	65.4578
139.412	76.7219
142.787	39.7405
146.162	81.5276
149.536	18.3905
152.911	85.4428
156.286	43.7849
159.661	46.9185
163.036	19.3733
166.411	49.1929
169.785	51.2759
173.16	3.93689
176.535	52.9765
179.91	45.9269
183.285	32.6209
186.659	38.7492
190.034	1.54102
193.409	48.6545
196.784	10.4497
200.159	12.1033
203.534	21.5034
206.908	12.5585
210.283	5.73621
213.658	3.93091
217.033	21.9164
220.407	41.2383
223.782	26.5713
227.157	7.84607
230.532	43.0236
233.907	49.1701
237.282	16.8461
240.656	29.8078
244.031	34.5769
247.406	29.4
250.781	23.154
254.156	69.8975
257.531	23.8491
260.905	15.1947
264.28	17.1536
267.655	68.6745
271.03	73.4345
274.405	78.0542
277.779	72.1987
281.154	24.2608
284.529	54.2312
287.904	27.123
291.279	65.1458
294.654	51.4251
298.028	54.3223
301.403	85.9742
304.778	51.3985
308.153	26.3777
311.528	27.4447
314.902	31.2106
318.277	4.3902
321.652	22.2417
325.027	77.3801
328.402	40.0033
331.776	38.071
335.151	53.204
338.526	32.473
341.901	65.9976
345.276	31.2515
348.651	59.4454
352.025	36.6732
355.4	16.4956
358.775	34.3688
362.15	29.4993
365.525	24.2534
368.899	3.31781
372.274	50.7978
375.649	42.595
379.024	17.6781
382.399	18.7891
385.774	18.2351
389.148	46.003
392.523	14.2172
395.898	15.1253
399.273	19.4845
402.648	38.2874
406.022	30.4809
409.397	75.0126
412.772	16.2255
416.147	22.7058
419.522	61.1599
422.897	1.98035
426.271	37.8354
429.646	30.8148
433.021	36.0035
436.396	31.9861
439.771	33.2247
443.145	0.623901
446.52	58.9573
449.895	47.3074
453.27	21.0194
456.645	47.4486
460.019	1.85431
463.394	12.4009
466.769	28.6232
470.144	21.8842
473.519	26.2526
476.894	28.4151
480.268	35.1066
483.643	8.07001
487.018	29.2352
490.393	40.7514
493.768	18.7756
497.142	28.3481
500.517	38.279
503.892	25.1849
507.267	3.85724
510.642	11.9252
514.016	28.307
517.391	44.1274
520.766	20.1319
524.141	4.078
527.516	34.707
530.891	37.579
534.265	41.4565
537.64	32.5662
541.015	51.5146
544.39	43.9857
547.765	9.38544
551.139	2.88916
554.514	18.4203
557.889	10.1267
561.264	40.4714
564.639	40.9617
568.014	7.44385
571.388	69.2357
574.763	4.31378
578.138	35.9513
581.513	3.46918
584.888	48.5571
588.263	43.9527
591.637	62.3497
595.012	29.4285
598.387	17.0756
601.762	33.4417
605.136	2.24182
608.511	18.2692
611.886	41.6654
615.261	35.9813
618.636	2.56696
622.011	29.4188
625.385	19.9664
628.76	43.6426
632.135	8.82269
635.51	52.1561
638.885	48.5776
642.26	36.7818
645.634	48.0772
649.009	29.8695
652.384	50.0312
655.759	41.7764
659.134	8.10626
662.508	69.0151
665.883	20.514
669.258	69.1399
672.633	23.4036
676.008	45.4941
679.382	33.3196
682.757	42.7693
686.132	14.2579
689.507	20.8404
692.882	33.5218
696.256	20.4713
699.631	13.8975
703.006	54.4261
706.381	38.2736
709.756	41.7179
713.131	48.1116
716.505	30.9788
719.88	19.59
723.255	4.32501
726.63	34.6117
730.005	11.3087
733.38	20.3581
736.754	32.4164
740.129	58.8551
743.504	32.8582
746.879	34.0576
750.254	37.7286
753.628	31.0117
757.003	40.9247
760.378	0.37085
763.753	10.135
767.128	23.3823
770.503	31.3253
773.877	16.2275
777.252	36.8188
780.627	12.4484
784.002	24.6596
787.377	39.5692
790.751	27.1232
794.126	21.6125
797.501	32.3937
800.876	1.73236
804.251	15.999
807.625	27.1852
811	23.9029
814.375	28.9074
817.75	33.3008
821.125	29.9579
824.5	28.9656
827.874	12.9199
831.249	13.1155
834.624	29.0273
837.999	12.3537
841.374	20.0522
844.748	22.1564
848.123	5.39789
851.498	29.2304
854.873	12.2771
858.248	34.7521
861.622	9.09021
864.997	13.7873
868.372	40.9573
871.747	4.18408
875.122	3.22333
878.497	38.947
881.871	12.5334
885.246	12.7013
888.621	42.7405
891.996	6.8833
895.371	4.19049
898.745	56.4342
902.12	4.23865
905.495	77.0531
908.87	48.515
912.245	44.3486
915.62	39.33
918.994	12.4667
922.369	30.8823
925.744	20.9889
929.119	43.3298
932.494	48.0255
935.869	1.09094
939.243	11.8668
942.618	66.9017
945.993	21.7493
949.368	23.9651
952.743	47.4719
956.117	57.3705
959.492	38.8679
962.867	11.6134
966.242	63.739
969.617	17.1688
972.991	27.6593
976.366	34.9899
979.741	37.1825
983.116	19.8223
986.491	22.3337
989.865	73.1395
993.24	29.4004
996.615	32.6151
999.99	28.944
1003.37	71.6269
1006.74	23.5339
1010.11	46.8812
1013.49	8.24219
1016.86	39.7507
1020.24	17.3336
1023.61	22.7726
1026.99	2.60754
1030.36	25.5859
1033.74	14.173
1037.11	54.6078
1040.49	65.499
1043.86	34.1758
1047.24	35.3751
1050.61	27.5594
1053.99	4.73083
1057.36	13.0552
1060.74	44.9518
1064.11	22.933
1067.49	57.6068
1070.86	33.7128
1074.24	25.1412
1077.61	28.8742
1080.98	29.7146
1084.36	8.88684
1087.73	30.3365
1091.11	17.2783
1094.48	23.3921
1097.86	3.04028
1101.23	22.2211
1104.61	12.0118
1107.98	62.4137
1111.36	10.1442
1114.73	2.7522
1118.11	37.369
1121.48	14.3558
1124.86	33.9152
1128.23	14.8093
1131.61	14.985
1134.98	74.5133
1138.36	37.3247
1141.73	64.7893
1145.11	57.0089
1148.48	29.8098
1151.86	5.37927
1155.23	49.9313
1158.61	30.691
1161.98	4.77832
1165.36	71.7921
1168.73	20.212
1172.11	19.1811
1175.48	50.1748
1178.86	11.4169
1182.23	50.8088
1185.61	11.9288
1188.98	27.9697
1192.35	45.0498
1195.73	6.54981
1199.1	54.9298
1202.48	35.8455
1205.85	60.1685
1209.23	24.3273
1212.6	29.0977
1215.98	13.1372
1219.35	51.7909
1222.73	12.3945
1226.1	2.0603
1229.48	25.2583
1232.85	38.9667
1236.23	40.0171
1239.6	0.174927
1242.98	12.1616
1246.35	18.5826
1249.73	40.2085
1253.1	14.9613
1256.48	13.465
1259.85	23.3772
1263.23	34.1606
1266.6	19.7532
1269.97	35.4292
1273.35	1.37061
1276.72	45.8612
1280.1	29.1277
1283.47	14.5476
1286.85	53.781
1290.22	21.9429
1293.6	57.4807
1296.97	39.0283
1300.35	47.6728
