Measurement: Raman, 785 nm, unoriented, Raman Data Processed
Mineral: Chalcocite
Rruff sample: R050067
Ideal chemistry: Cu^1+^_2_S^2-^
Locality: Flambeau, Rusk County, Wisconsin, USA
Source: Rock Currier
Description: Iridescent blue irregular hexagonal tablet
Measured chemistry: Cu_2.00_S_1.00_
Raman shift (cm-1)	intensity
200.569	0
203.461	49.4587
206.354	14.5595
209.247	32.726
212.139	1.5627
215.032	6.64427
217.925	66.064
220.818	59.3412
223.71	49.2662
226.603	42.2296
229.496	85.2819
232.388	65.7694
235.281	20.9067
238.174	77.4786
241.066	85.997
243.959	114.068
246.852	69.3709
249.745	69.7244
252.637	107.984
255.53	88.0329
258.423	74.4847
261.315	28.5455
264.208	107.337
267.101	45.2906
269.993	123.478
272.886	101.768
275.779	39.732
278.672	25.1174
281.564	65.5464
284.457	43.5012
287.35	52.4027
290.242	65.2226
293.135	47.8845
296.028	21.812
298.921	108.798
301.813	54.7992
304.706	34.9694
307.599	89.3834
310.491	71.8481
313.384	67.4809
316.277	25.197
319.169	17.8396
322.062	14.9589
324.955	18.2583
327.847	25.8898
330.74	56.3853
333.633	64.7471
336.526	97.9425
339.418	2.58984
342.311	26.4795
345.204	1.45634
348.096	53.3786
350.989	3.2336
353.882	81.2582
356.774	25.9126
359.667	57.0851
362.56	8.16041
365.452	9.97484
368.345	5.98037
371.238	0.181659
374.131	12.1769
377.023	69.8727
379.916	6.50002
382.809	21.8162
385.701	26.3711
388.594	38.1597
391.487	60.0758
394.38	48.2388
397.272	41.6676
400.165	25.5307
403.058	1.16877
405.95	26.408
408.843	3.68373
411.736	3.4857
414.628	5.44689
417.521	18.8986
420.414	46.2099
423.307	53.5495
426.199	64.2854
429.092	30.4985
431.985	56.4516
434.877	36.6458
437.77	4.37963
440.663	38.5487
443.555	10.5161
446.448	58.9938
449.341	59.1009
452.234	0.99009
455.126	34.4337
458.019	56.6339
460.912	27.0084
463.804	71.3154
466.697	13.1716
469.59	104.292
472.483	49.254
475.375	40.9639
478.268	6.25999
481.161	39.7454
484.053	4.54172
486.946	51.1549
489.839	55.2546
492.731	50.8515
495.624	86.5019
498.517	59.48
501.409	8.38716
504.302	32.9806
507.195	78.2723
510.088	54.19
512.98	1.67015
515.873	21.0437
518.766	4.45761
521.658	15.8526
524.551	18.6241
527.444	3.37073
530.337	30.1737
533.229	49.6488
536.122	36.1698
539.015	2.57916
541.907	80.3661
544.8	55.5311
547.693	17.1399
550.585	51.8664
553.478	50.5627
556.371	38.0551
559.263	45.2822
562.156	46.8075
565.049	58.1352
567.942	44.0852
570.834	76.3031
573.727	77.3085
576.62	15.1605
579.512	111.777
582.405	16.8828
585.298	33.2414
588.19	97.089
591.083	66.2262
593.976	58.6743
596.869	19.5941
599.761	68.5107
602.654	6.80375
605.547	18.473
608.439	43.9407
611.332	24.9145
614.225	33.2833
617.117	68.9225
620.01	37.2226
622.903	45.6176
625.795	36.489
628.688	43.2904
631.581	87.0466
634.474	2.84709
637.366	26.3826
640.259	30.227
643.152	38.4601
646.044	50.2513
648.937	8.26687
651.83	40.3366
654.722	40.5537
657.615	74.7664
660.508	1.88017
663.401	62.2179
666.293	12.0895
669.186	11.8043
672.079	3.19103
674.971	111.63
677.864	4.48225
680.757	13.7445
683.649	59.8532
686.542	85.4549
689.435	68.0044
692.328	61.6945
695.22	36.7474
698.113	29.1756
701.006	56.1119
703.898	54.6439
706.791	54.1165
709.684	63.7133
712.577	35.4134
715.469	37.3694
718.362	110.917
721.255	62.3277
724.147	95.7416
727.04	30.9751
729.933	24.1217
732.825	4.44189
735.718	10.9948
738.611	14.5949
741.504	57.3173
744.396	15.7763
747.289	65.4886
750.182	59.0919
753.074	69.8475
755.967	12.9615
758.86	23.5798
761.752	28.7575
764.645	101.46
767.538	1.30143
770.431	27.3782
773.323	13.2288
776.216	6.40175
779.109	8.10644
782.001	51.6261
784.894	24.521
787.787	53.0129
790.679	46.6658
793.572	88.0148
796.465	82.646
799.357	19.8197
802.25	5.62994
805.143	16.1555
808.036	30.3891
810.928	8.76109
813.821	40.2214
816.714	54.714
819.606	19.3374
822.499	26.2023
825.392	78.3825
828.284	1.86429
831.177	28.0485
834.07	31.5731
836.963	37.5423
839.855	17.364
842.748	29.6386
845.641	21.3642
848.533	15.1214
851.426	22.8628
854.319	42.1494
857.212	57.6081
860.104	18.9105
862.997	70.2703
865.89	60.1444
868.782	50.6538
871.675	58.0506
874.568	8.05122
877.46	24.7773
880.353	19.8584
883.246	21.5015
886.139	20.092
889.031	73.6255
891.924	42.6849
894.817	9.99704
897.709	36.6082
900.602	62.5367
903.495	48.3445
906.388	38.9223
909.28	46.0361
912.173	95.1586
915.066	45.4903
917.958	39.2101
920.851	47.8944
923.744	12.651
926.636	2.38858
929.529	68.7159
932.422	41.2991
935.314	34.3869
938.207	36.7958
941.1	59.9541
943.993	37.2282
946.885	39.7405
949.778	7.43839
952.671	24.4053
955.563	30.3896
958.456	60.8991
961.349	19.8971
964.241	15.7137
967.134	73.4068
970.027	50.9718
972.92	35.2641
975.812	27.0303
978.705	47.4031
981.598	45.3901
984.49	49.8954
987.383	33.1243
990.276	67.0258
993.168	8.98181
996.061	2.41913
998.954	40.0032
1001.85	46.9504
1004.74	54.531
1007.63	48.4133
1010.52	3.31893
1013.42	39.5355
1016.31	43.7115
1019.2	42.8807
1022.1	10.787
1024.99	23.4427
1027.88	1.0372
1030.77	22.5742
1033.67	40.1572
1036.56	26.7627
1039.45	37.3055
1042.34	35.3644
1045.24	65.6959
1048.13	6.39789
1051.02	6.74789
1053.91	27.2051
1056.81	63.4242
1059.7	30.3687
1062.59	42.1768
1065.49	16.3945
1068.38	19.7536
1071.27	13.2661
1074.16	88.8874
1077.06	31.4207
1079.95	33.2112
1082.84	42.1098
1085.73	40.2954
1088.63	20.06
1091.52	31.2831
1094.41	28.1958
1097.31	2.23334
1100.2	10.6308
1103.09	98.0527
1105.98	30.0786
1108.88	25.746
1111.77	22.7703
1114.66	33.9564
1117.56	7.01094
1120.45	45.1903
1123.34	34.0017
1126.23	76.2236
1129.12	38.6335
1132.02	15.5144
1134.91	36.6349
1137.8	75.5836
1140.7	45.645
1143.59	47.0634
1146.48	63.3446
1149.37	40.1632
1152.27	40.4723
1155.16	36.5205
1158.05	51.6518
1160.94	4.30118
1163.84	8.94894
1166.73	53.6202
1169.62	53.0248
1172.52	1.85246
1175.41	6.43559
1178.3	24.259
1181.19	36.0457
1184.09	37.6074
1186.98	15.5607
1189.87	39.3394
1192.77	37.7778
1195.66	97.4181
1198.55	53.1981
1201.44	94.4804
1204.34	79.2236
1207.23	6.97419
1210.12	50.8712
1213.01	60.6164
1215.91	37.3689
1218.8	15.5642
1221.69	22.5724
1224.58	86.3364
1227.48	84.0151
1230.37	39.3578
1233.26	0.232624
