Measurement: Raman, 785 nm, unoriented, Raman Data Processed
Mineral: Chestermanite
Rruff sample: R070351
Ideal chemistry: Mg_2_(Fe^3+^,Mg,Al,Sb^5+^)O_2_BO_3_
Locality: Twin Lakes region, Kaiser Peak quadrangle, Fresno County, California, USA
Source: Michael Scott
Description: Black bladed associated with calcite, co-type sample
Raman shift (cm-1)	intensity
159.107	0
161.999	4.01538
164.892	232.575
167.785	485.32
170.677	643.173
173.57	679.077
176.463	735.014
179.356	829.718
182.248	991.739
185.141	1139.63
188.034	1317.59
190.926	1519.11
193.819	1599.45
196.712	1648.4
199.604	1642.48
202.497	1459.9
205.39	1323.69
208.282	1153
211.175	1010.37
214.068	935.288
216.961	903.441
219.853	924.692
222.746	837.807
225.639	774.369
228.531	743.562
231.424	654.006
234.317	539.382
237.209	441.859
240.102	407.139
242.995	296.399
245.888	251.895
248.78	189.363
251.673	190.269
254.566	92.5854
257.458	65.0928
260.351	57.8555
263.244	16.9009
266.137	41.895
269.029	11.9805
271.922	6.86621
274.815	4.53418
277.707	5.56299
280.6	11.1245
283.493	26.5977
286.385	57.1616
289.278	34.1201
292.171	35.1904
295.063	5.5708
297.956	54.3071
300.849	46.0981
303.742	24.3833
306.634	44.5044
309.527	28.0352
312.42	55.3926
315.312	56.2627
318.205	80.8115
321.098	64.1719
323.99	109.561
326.883	186.353
329.776	157.135
332.669	194.963
335.561	209.843
338.454	191.76
341.347	197.918
344.239	183.723
347.132	123.362
350.025	60.1079
352.918	79.1953
355.81	51.3857
358.703	27.9277
361.596	12.252
364.488	4.10986
367.381	62.2007
370.274	69.6148
373.166	20.2363
376.059	60.7051
378.952	23.2417
381.844	41.4761
384.737	1.42041
387.63	51.0855
390.523	74.9609
393.415	185.161
396.308	282.405
399.201	376.649
402.093	488.035
404.986	575.517
407.879	612.358
410.772	739.233
413.664	741.249
416.557	803.786
419.45	846.768
422.342	905.108
425.235	855.064
428.128	794.056
431.02	826.835
433.913	811.22
436.806	803.914
439.699	792.267
442.591	769.971
445.484	718.601
448.377	745.901
451.269	674.912
454.162	795.823
457.055	731.731
459.947	828.847
462.84	952.24
465.733	1034.78
468.625	1122.07
471.518	1168.84
474.411	1068.39
477.304	1046.54
480.196	894.883
483.089	765.204
485.982	641.667
488.875	499.276
491.767	460.234
494.66	375.122
497.553	300.594
500.445	202.195
503.338	132.214
506.231	154.425
509.123	191.887
512.016	206.144
514.909	303.581
517.802	372.315
520.694	453.478
523.587	462.825
526.48	587.563
529.372	508.564
532.265	502.432
535.158	429.427
538.05	338.953
540.943	250.524
543.836	255.523
546.729	153.144
549.621	20.1128
552.514	64.3037
555.407	23.793
558.299	7.73682
561.192	49.6309
564.085	31.2734
566.977	55.1728
569.87	56.27
572.763	3.50342
575.655	2.37109
578.548	23.6919
581.441	21.5947
584.334	25.4556
587.226	3.41748
590.119	19.897
593.012	61.8442
595.904	21.8774
598.797	17.5723
601.69	35.5852
604.582	30.8091
607.475	39.5002
610.368	41.4763
613.261	63.9653
616.153	91.4714
619.046	101.001
621.939	145.611
624.831	141.562
627.724	184.067
630.617	201.751
633.51	184.586
636.402	234.106
639.295	240.505
642.188	250.397
645.08	270.819
647.973	263.882
650.866	267.411
653.758	243.834
656.651	249.577
659.544	258.764
662.437	213.666
665.329	263.556
668.222	186.993
671.115	191.141
674.007	147.954
676.9	153.085
679.793	140.776
682.685	88.7017
685.578	95.5083
688.471	55.2993
691.364	12.3884
694.256	47.4695
697.149	35.4297
700.042	23.4558
702.934	33.4355
705.827	38.9651
708.72	28.8357
711.612	40.5049
714.505	8.28979
717.398	46.7065
720.29	10.9656
723.183	1.19751
726.076	54.7905
728.969	19.4014
731.861	27.5137
734.754	1.32178
737.647	42.4353
740.539	27.3613
743.432	24.1245
746.325	56.2786
749.217	38.9656
752.11	45.9321
755.003	38.3027
757.896	47.3679
760.788	25.2002
763.681	33.5256
766.574	38.418
769.466	26.7764
772.359	14.4463
775.252	43.9529
778.144	8.48682
781.037	8.9021
783.93	22.4487
786.823	58.3396
789.715	2.64648
792.608	0.478516
795.501	31.7405
798.393	0.486328
801.286	17.76
804.179	6.87085
807.072	19.5791
809.964	8.82837
812.857	8.25317
815.75	1.0415
818.642	16.5823
821.535	47.7175
824.428	26.2483
827.32	76.261
830.213	20.5283
833.106	4.53735
835.999	40.9688
838.891	24.8552
841.784	14.9653
844.677	48.6501
847.569	42.1672
850.462	38.957
853.355	74.2769
856.247	29.2952
859.14	25.3342
862.033	54.0591
864.926	2.29614
867.818	52.9673
870.711	53.4336
873.604	35.5652
876.496	28.314
879.389	35.8023
882.282	56.0852
885.174	44.0781
888.067	34.8472
890.96	29.1687
893.852	21.9304
896.745	18.0056
899.638	39.7427
902.531	63.0994
905.423	38.1157
908.316	15.4954
911.209	12.7742
914.101	17.8201
916.994	7.97998
919.887	29.9019
922.779	6.07153
925.672	46.4951
928.565	35.0435
931.458	35.3145
934.35	41.1797
937.243	51.3875
940.136	35.0308
943.028	62.769
945.921	19.3823
948.814	54.187
951.707	89.6501
954.599	47.842
957.492	52.9602
960.385	38.8933
963.277	9.99902
966.17	49.459
969.063	31.0225
971.955	15.4304
974.848	0.093262
977.741	25.3137
980.634	23.7156
983.526	15.7944
986.419	14.3247
989.312	15.2253
992.204	20.3657
995.097	21.3066
997.99	49.3308
1000.88	7.39551
1003.77	20.6404
1006.67	21.5315
1009.56	21.5886
1012.45	35.397
1015.35	36.3059
1018.24	41.7507
1021.13	32.8303
1024.02	14.0872
1026.92	48.0952
1029.81	29.0525
1032.7	57.8025
1035.6	20.3633
1038.49	39.98
1041.38	32.3015
1044.27	21.7695
1047.17	25.4714
1050.06	2.41187
1052.95	83.2725
1055.84	62.4551
1058.74	56.7312
1061.63	36.6965
1064.52	22.125
1067.41	36.8198
1070.31	51.2315
1073.2	36.5054
1076.09	16.0903
1078.98	51.7019
1081.88	49.2703
1084.77	7.48731
1087.66	42.2611
1090.56	67.5787
1093.45	45.6503
1096.34	33.9601
1099.23	39.8171
1102.13	49.6536
1105.02	23.4314
1107.91	59.8208
1110.81	25.6692
1113.7	46.1694
1116.59	58.4022
1119.48	31.3849
1122.38	41.254
1125.27	54.2253
1128.16	10.6775
1131.05	45.2437
1133.95	33.8157
1136.84	4.07605
1139.73	45.6204
1142.62	10.3332
1145.52	20.8007
1148.41	14.3472
1151.3	33.9034
1154.2	54.6724
1157.09	28.3314
1159.98	19.6986
1162.87	12.1791
1165.77	7.79102
1168.66	0.368286
1171.55	3.65906
1174.44	26.7351
1177.34	13.6822
1180.23	42.0336
1183.12	12.8223
1186.02	57.6808
1188.91	48.3668
1191.8	45.3634
1194.69	82.2421
1197.59	71.7937
1200.48	63.9124
1203.37	67.3995
1206.26	40.5746
1209.16	40.9441
1212.05	27.4318
1214.94	20.7319
1217.84	1.17322
1220.73	31.7001
1223.62	14.8428
1226.51	9.24243
1229.41	20.2513
