Measurement: Raman, 780 nm, unoriented, Raman Data Processed
Mineral: Chevkinite-(Ce)
Rruff sample: R060419
Ideal chemistry: Ce^3+^_4_(Ti^4+^,Fe^2+^,Fe^3+^)_5_O_8_(Si_2_O_7_)_2_
Locality: Arondu, Basha Valley, Baltistan, Pakistan
Source: Herb Obodda
Description: Black resinous fragment
Measured chemistry: (Ce_1.89_La_0.88_Nd_0.63_Ca_0.47_Th_0.13_)_Σ=4_(Ti_2.80_Fe^2+^_1.46_Fe^3+^_0.74_)_Σ=5_O_8_(Si_2.00_O_7_)_2_
Raman shift (cm-1)	intensity
178.351	0
181.243	0.861786
184.136	1.03587
187.029	1.32617
189.921	1.37335
192.814	2.22604
195.707	0.237286
198.6	2.96084
201.492	1.81559
204.385	1.30325
207.278	2.42928
210.17	1.98584
213.063	2.14331
215.956	0.41362
218.848	0.310524
221.741	1.84296
224.634	1.25434
227.526	1.35683
230.419	2.03945
233.312	1.8587
236.205	0.343933
239.097	2.60991
241.99	1.90114
244.883	2.95055
247.775	1.79785
250.668	3.15737
253.561	2.24551
256.454	1.38982
259.346	1.46049
262.239	1.66655
265.132	2.23169
268.024	2.40614
270.917	1.76449
273.81	1.34703
276.702	2.05131
279.595	2.15519
282.488	2.08766
285.38	1.0296
288.273	2.29591
291.166	2.3451
294.059	1.08991
296.951	1.68314
299.844	3.19132
302.737	2.31634
305.629	0.671162
308.522	1.21511
311.415	2.49717
314.308	0.553167
317.2	2.33765
320.093	0.615648
322.986	0.199709
325.878	1.98913
328.771	0.058353
331.664	1.53845
334.556	0.309698
337.449	1.55376
340.342	0.508959
343.234	1.25058
346.127	1.07214
349.02	1.05807
351.913	0.593451
354.805	0.413101
357.698	1.32215
360.591	0.413069
363.483	0.173187
366.376	1.53229
369.269	1.84813
372.161	0.462891
375.054	2.21018
377.947	1.05239
380.839	2.29322
383.732	1.0076
386.625	2.49182
389.518	1.23978
392.41	1.35846
395.303	1.23277
398.196	1.70245
401.088	2.08666
403.981	0.560911
406.874	1.79838
409.767	2.05823
412.659	1.9835
415.552	2.47934
418.445	2.20687
421.337	2.49223
424.23	0.743261
427.123	1.88196
430.015	1.56156
432.908	1.63453
435.801	0.975405
438.693	0.685074
441.586	0.009859
444.479	0.240467
447.372	0.10364
450.264	0.937632
453.157	0.078939
456.05	0.028149
458.942	0.307123
461.835	0.895447
464.728	0.297068
467.62	0.77821
470.513	0.359432
473.406	0.437984
476.299	0.653725
479.191	0.920389
482.084	0.372746
484.977	1.12579
487.869	0.588961
490.762	1.736
493.655	1.37828
496.547	2.15456
499.44	2.20636
502.333	2.44774
505.226	2.44909
508.118	2.9228
511.011	2.89958
513.904	3.53197
516.796	2.80243
519.689	2.70311
522.582	4.05679
525.474	4.19171
528.367	4.37864
531.26	6.12806
534.153	3.40463
537.045	3.94933
539.938	2.82414
542.831	2.96122
545.723	3.48275
548.616	2.90496
551.509	2.22378
554.401	2.42499
557.294	2.20777
560.187	1.71
563.08	0.322386
565.972	1.8359
568.865	0.968893
571.758	0.346575
574.65	0.087748
577.543	0.158417
580.436	0.596699
583.328	1.11152
586.221	0.153742
589.114	1.05554
592.006	0.00778
594.899	0.628576
597.792	0.905605
600.685	0.29417
603.577	1.28182
606.47	2.11478
609.363	1.34024
612.255	2.31452
615.148	1.91833
618.041	1.3862
620.933	3.2929
623.826	3.68239
626.719	3.18622
629.611	2.05674
632.504	3.94672
635.397	2.91521
638.29	3.91404
641.182	4.25788
644.075	3.99999
646.968	3.24249
649.86	3.52007
652.753	3.00172
655.646	4.00526
658.538	3.05801
661.431	4.08731
664.324	2.96607
667.217	3.97807
670.109	3.54925
673.002	3.12206
675.895	4.05283
678.787	2.77436
681.68	2.71044
684.573	2.87125
687.466	2.19261
690.358	2.74939
693.251	2.04151
696.144	2.0622
699.036	1.53937
701.929	1.7212
704.822	1.95189
707.714	1.21914
710.607	1.422
713.5	1.04674
716.393	1.62745
719.285	1.42014
722.178	1.43814
725.071	1.05411
727.963	0.982813
730.856	0.709867
733.749	0.091959
736.641	0.682467
739.534	1.50842
742.427	0.082712
745.319	0.476557
748.212	0.845686
751.105	0.945581
753.998	0.223646
756.89	1.77122
759.783	0.48642
762.676	0.400242
765.568	0.109859
768.461	0.406174
771.354	0.816736
774.246	0.530819
777.139	0.794802
780.032	1.05409
782.925	0.459255
785.817	0.859367
788.71	0.159166
791.603	0.248356
794.495	0.316868
797.388	0.051241
800.281	0.01194
803.173	1.06184
806.066	1.5138
808.959	0.83671
811.851	1.14848
814.744	1.24828
817.637	1.23765
820.53	0.500582
823.422	0.361668
826.315	0.853394
829.208	0.531975
832.1	1.88562
834.993	1.28244
837.886	2.37773
840.779	1.22483
843.671	2.02141
846.564	1.8703
849.457	0.788794
852.349	2.12923
855.242	1.32418
858.135	1.87603
861.027	1.95288
863.92	2.15298
866.813	1.77767
869.706	0.981602
872.598	1.26471
875.491	1.61706
878.384	1.41937
881.276	1.09698
884.169	2.10714
887.062	1.87581
889.954	1.3037
892.847	1.20273
895.74	2.00728
898.632	1.90105
901.525	1.20141
904.418	0.618239
907.311	0.187614
910.203	0.916956
913.096	1.08806
915.989	0.823552
918.881	0.925266
921.774	0.657172
924.667	0.510104
927.559	0.385351
930.452	0.254624
933.345	1.10692
936.237	0.260226
939.13	0.304517
942.023	0.131289
944.916	0.901355
947.808	0.300162
950.701	0.450386
953.594	0.91185
956.486	1.17687
959.379	0.904067
962.272	1.4084
965.164	1.58191
968.057	1.70529
970.95	1.41781
973.843	0.584097
976.735	0.086729
979.628	0.162422
982.521	1.09051
985.413	1.09698
988.306	0.109513
991.199	1.30309
994.091	1.22204
996.984	1.72155
999.877	0.621381
1002.77	0.234571
1005.66	1.26201
1008.55	1.26947
1011.45	2.21712
1014.34	1.11657
1017.23	1.9797
1020.13	0.62025
1023.02	1.12487
1025.91	1.27838
1028.8	1.40133
1031.7	1.70527
1034.59	1.47048
1037.48	1.21326
1040.38	1.6579
1043.27	0.637136
1046.16	0.837184
1049.05	1.4422
1051.94	1.36671
1054.84	1.37928
1057.73	1.51005
1060.62	0.533751
1063.52	0.357419
1066.41	1.25317
1069.3	0.979696
1072.19	0.931801
1075.09	1.35772
1077.98	0.691439
1080.87	0.748082
1083.77	0.346298
1086.66	0.907135
1089.55	1.18168
1092.44	1.62111
1095.34	1.06902
1098.23	1.09066
1101.12	0.917068
1104.01	0.789824
1106.91	1.70132
1109.8	1.07588
1112.69	0.419144
1115.59	1.4083
1118.48	0.963341
1121.37	0.832915
1124.26	1.45514
1127.16	1.3292
1130.05	1.0714
1132.94	1.36857
1135.83	1.08968
1138.73	1.61489
1141.62	0.807796
1144.51	1.16183
1147.4	0.150331
1150.3	0.43908
1153.19	1.43664
1156.08	0.948816
1158.97	0.864863
1161.87	0.823851
1164.76	1.46349
1167.65	1.31257
1170.55	0.949863
1173.44	1.24973
1176.33	0.696423
1179.22	0.608893
1182.12	0.882168
1185.01	0.593349
1187.9	1.56283
1190.8	1.602
1193.69	0.953479
1196.58	1.59702
1199.47	0.871648
1202.37	2.04476
1205.26	0.904886
1208.15	0.464029
1211.04	1.37805
1213.94	0.66216
1216.83	0.870444
1219.72	0.344496
1222.62	1.20572
1225.51	0.205789
1228.4	1.20389
1231.29	0.766603
1234.18	0.087031
1237.08	0.483807
1239.97	0.780735
1242.86	0.834334
1245.76	0.98422
1248.65	0.87901
1251.54	0.990706
1254.43	1.12272
1257.33	1.42753
1260.22	1.11243
1263.11	0.306163
1266.01	0.536061
1268.9	0.35561
1271.79	1.63671
1274.68	0.264717
1277.58	1.37182
1280.47	0.700373
1283.36	0.757406
