Measurement: Raman, 532 nm, unoriented, Raman Data Processed
Mineral: Chlorbartonite
Rruff sample: R070178
Ideal chemistry: K_6_Fe_24_S_26_Cl
Locality: Coyote Peak, Orick, Humboldt County, California, USA
Source: Michael Scott
Description: Brownish black with submetallic luster, associated with bartonite. Note that this is co-type material for bartonite, but there is very little bartonite on this piece.
Measured chemistry: (K_5.70_Na_0.18_)_Σ=5.88_(Fe_19.22_Cu_0.33_Co_0.06_Ni_0.06_)_Σ=19.67_S_26.20_Cl_0.80_
Raman shift (cm-1)	intensity
133.308	0
136.682	8.37381
140.057	47.166
143.432	6.16254
146.807	26.2199
150.182	37.9104
153.556	36.6435
156.931	24.0734
160.306	28.8549
163.681	23.4237
167.056	32.1564
170.43	42.0695
173.805	32.1611
177.18	30.2602
180.555	12.5392
183.93	3.16119
187.305	51.0793
190.679	12.4065
194.054	25.8421
197.429	31.2816
200.804	29.7889
204.179	27.5162
207.553	8.9127
210.928	34.53
214.303	18.785
217.678	27.1379
221.053	31.23
224.428	21.2349
227.802	4.45309
231.177	22.511
234.552	8.65364
237.927	19.1254
241.302	35.9353
244.676	13.2704
248.051	12.5534
251.426	3.79825
254.801	0.937607
258.176	32.13
261.55	15.5627
264.925	38.435
268.3	33.1204
271.675	16.0312
275.05	40.8321
278.425	35.5329
281.799	26.147
285.174	21.5023
288.549	21.6543
291.924	23.5061
295.299	1.87523
298.673	16.7118
302.048	18.6766
305.423	34.7209
308.798	27.2074
312.173	17.1268
315.548	44.1654
318.922	40.1193
322.297	38.4996
325.672	28.6121
329.047	33.8696
332.421	39.1848
335.796	35.1225
339.171	33.1852
342.546	21.8929
345.921	8.90227
349.296	43.5175
352.67	27.0499
356.045	23.7755
359.42	22.0833
362.795	32.7119
366.17	15.3972
369.545	1.95204
372.919	16.2505
376.294	3.98979
379.669	25.8073
383.044	27.2392
386.418	39.0079
389.793	10.2904
393.168	19.5158
396.543	0.077927
399.918	15.2469
403.293	18.7914
406.667	18.4566
410.042	8.85907
413.417	15.1872
416.792	28.225
420.167	6.25024
423.541	31.8336
426.916	41.3045
430.291	16.1784
433.666	18.2462
437.041	31.6303
440.416	24.9967
443.79	26.5617
447.165	4.66693
450.54	38.8123
453.915	1.26137
457.29	13.6071
460.664	7.3279
464.039	0.437775
467.414	26.5761
470.789	13.8706
474.164	8.55577
477.538	17.2086
480.913	27.2533
484.288	31.0028
487.663	36.5111
491.038	32.5992
494.413	21.1692
497.787	25.7565
501.162	3.23502
504.537	29.263
507.912	5.88069
511.287	29.91
514.662	12.4414
518.036	7.17793
521.411	16.3252
524.786	21.9966
528.161	11.2521
531.536	21.9989
534.91	27.0852
538.285	37.4274
541.66	10.773
545.035	10.8526
548.41	32.9569
551.784	12.3589
555.159	25.3446
558.534	9.6638
561.909	45.8515
565.284	43.1571
568.659	20.1781
572.033	33.2927
575.408	30.6937
578.783	28.7198
582.158	24.2569
585.533	28.0948
588.907	13.6383
592.282	15.9843
595.657	23.8165
599.032	16.1245
602.407	13.2575
605.781	38.5904
609.156	18.7614
612.531	34.1484
615.906	39.1325
619.281	35.0861
622.655	36.886
626.03	10.188
629.405	9.51108
632.78	28.0881
636.155	11.985
639.53	10.8252
642.904	14.2151
646.279	5.75014
649.654	12.5918
653.029	32.9552
656.404	22.0493
659.779	5.33838
663.153	32.3426
666.528	8.99287
669.903	29.6095
673.278	20.5834
676.653	17.3357
680.027	26.026
683.402	2.10204
686.777	2.56946
690.152	14.8369
693.527	24.0954
696.901	20.1757
700.276	31.0379
703.651	12.7338
707.026	30.2774
710.401	15.8036
713.775	19.5686
717.15	17.6664
720.525	5.53293
723.9	10.9835
727.275	13.7825
730.649	11.1947
734.024	39.8819
737.399	38.8753
740.774	41.3646
744.149	12.8385
747.524	23.9527
750.898	6.15883
754.273	13.2523
757.648	15.0445
761.023	25.1443
764.398	14.086
767.773	20.249
771.147	37.0338
774.522	14.2885
777.897	30.4326
781.272	33.3003
784.647	50.5255
788.021	27.7075
791.396	1.81033
794.771	20.7112
798.146	11.117
801.521	7.37537
804.895	16.9731
808.27	19.4225
811.645	24.4153
815.02	9.4139
818.395	22.2449
821.769	35.1346
825.144	20.4207
828.519	28.4474
831.894	5.83922
835.269	7.29952
838.644	16.4913
842.018	24.8685
845.393	22.6431
848.768	12.5074
852.143	35.6649
855.518	22.4205
858.893	34.0589
862.267	31.1001
865.642	16.0872
869.017	17.1612
872.392	22.7989
875.766	3.36
879.141	25.1684
882.516	1.8391
885.891	29.878
889.266	8.42181
892.641	8.25975
896.015	14.9129
899.39	17.8712
902.765	35.3915
906.14	7.00565
909.515	23.6443
912.889	16.6811
916.264	37.236
919.639	3.77007
923.014	5.05484
926.389	6.44946
929.764	23.5551
933.138	39.6192
936.513	29.7201
939.888	37.7809
943.263	18.9398
946.638	22.1585
950.013	13.942
953.387	27.6441
956.762	10.2855
960.137	23.8723
963.512	6.14693
966.886	15.2894
970.261	22.3291
973.636	24.5969
977.011	6.41608
980.386	27.7732
983.761	25.2797
987.135	15.6661
990.51	14.3678
993.885	19.9428
997.26	10.2051
1000.63	4.68195
1004.01	17.2629
1007.38	16.238
1010.76	28.9167
1014.13	17.9787
1017.51	50.6915
1020.88	13.3452
1024.26	37.5224
1027.63	51.8195
1031.01	19.4859
1034.38	17.14
1037.76	8.39528
1041.13	19.3793
1044.51	22.9692
1047.88	7.38902
1051.26	4.25485
1054.63	5.22766
1058.01	32.496
1061.38	22.7592
1064.76	16.0807
1068.13	21.843
1071.51	12.7406
1074.88	15.6092
1078.26	14.9665
1081.63	23.9854
1085.01	2.39645
1088.38	3.8174
1091.76	22.7613
1095.13	17.851
1098.5	46.5348
1101.88	26.1723
1105.25	25.3025
1108.63	4.97435
1112	9.9705
1115.38	17.793
1118.75	0.259506
1122.13	10.3415
1125.5	31.0521
1128.88	27.1761
1132.25	17.1834
1135.63	29.7498
1139	50.5763
1142.38	23.8834
1145.75	27.5003
1149.13	32.4887
1152.5	0.859619
1155.88	21.3977
1159.25	14.7999
1162.63	8.96747
1166	27.2682
1169.38	24.3174
1172.75	53.1953
1176.12	16.342
1179.5	28.3955
1182.88	28.861
1186.25	17.3174
1189.62	7.66919
1193	10.4695
1196.37	3.38474
1199.75	17.6479
1203.12	31.3615
1206.5	11.9993
1209.87	7.99812
1213.25	28.6981
1216.62	27.6932
1220	17.5196
1223.37	50.0722
1226.75	24.076
1230.12	19.8911
1233.5	21.0792
1236.87	12.9863
1240.25	52.4711
1243.62	33.2396
1247	27.1046
1250.37	11.1238
1253.75	28.4097
1257.12	7.4184
1260.49	29.6806
1263.87	13.1559
1267.24	7.08302
1270.62	38.0579
1273.99	43.5121
1277.37	30.2159
1280.74	11.1184
1284.12	52.9199
1287.49	47.9724
1290.87	24.5102
1294.24	31.0162
1297.62	40.0376
1300.99	40.7502
1304.37	18.1573
1307.74	25.2832
1311.12	1.82016
1314.49	32.1381
