Measurement: Raman, 785 nm, unoriented, Raman Data Processed
Mineral: Chlorbartonite
Rruff sample: R070178
Ideal chemistry: K_6_Fe_24_S_26_Cl
Locality: Coyote Peak, Orick, Humboldt County, California, USA
Source: Michael Scott
Description: Brownish black with submetallic luster, associated with bartonite. Note that this is co-type material for bartonite, but there is very little bartonite on this piece.
Measured chemistry: (K_5.70_Na_0.18_)_Σ=5.88_(Fe_19.22_Cu_0.33_Co_0.06_Ni_0.06_)_Σ=19.67_S_26.20_Cl_0.80_
Raman shift (cm-1)	intensity
152.647	0
155.54	23.2724
158.433	1.68344
161.325	59.7005
164.218	51.5723
167.111	23.8909
170.004	46.0063
172.896	43.6649
175.789	50.7216
178.682	17.4287
181.574	7.80766
184.467	20.0071
187.36	9.70839
190.252	25.8611
193.145	25.0315
196.038	22.5368
198.93	22.8847
201.823	18.1309
204.716	1.41555
207.609	8.87763
210.501	5.22239
213.394	3.7649
216.287	23.6386
219.179	27.4728
222.072	15.5504
224.965	19.0722
227.857	20.1019
230.75	16.4723
233.643	25.2079
236.536	21.6557
239.428	24.7035
242.321	18.7585
245.214	11.5764
248.106	24.502
250.999	24.666
253.892	20.5173
256.784	14.5944
259.677	16.3419
262.57	19.8397
265.463	7.668
268.355	23.3751
271.248	20.6892
274.141	28.1484
277.033	7.87268
279.926	25.8322
282.819	13.9653
285.712	3.24051
288.604	14.024
291.497	12.2387
294.39	21.5993
297.282	22.5267
300.175	15.0766
303.068	9.70751
305.96	22.374
308.853	11.8655
311.746	19.719
314.639	15.8451
317.531	16.3831
320.424	10.6992
323.317	18.3342
326.209	9.20429
329.102	6.3902
331.995	14.4921
334.887	9.72335
337.78	13.2498
340.673	9.61838
343.565	22.1513
346.458	5.23339
349.351	28.4544
352.244	16.9333
355.136	4.74025
358.029	5.97546
360.922	12.1434
363.814	7.18276
366.707	25.03
369.6	7.88382
372.493	7.55422
375.385	0.257339
378.278	21.4188
381.171	10.7237
384.063	13.45
386.956	26.8234
389.849	7.74569
392.741	10.692
395.634	6.35431
398.527	15.9991
401.42	4.07713
404.312	13.9248
407.205	9.83713
410.098	11.5713
412.99	16.4503
415.883	23.1426
418.776	26.9498
421.668	34.9872
424.561	12.8126
427.454	14.6435
430.346	25.6102
433.239	21.1781
436.132	10.7542
439.025	22.4555
441.917	26.1027
444.81	6.47733
447.703	1.484
450.595	10.5318
453.488	8.08445
456.381	25.4289
459.274	5.61671
462.166	6.04701
465.059	36.3611
467.952	26.38
470.844	32.0779
473.737	22.6426
476.63	12.1035
479.522	21.6096
482.415	11.3669
485.308	4.388
488.2	5.45844
491.093	11.0894
493.986	26.0007
496.878	20.3665
499.771	26.25
502.664	17.913
505.557	30.0826
508.449	27.8935
511.342	10.4784
514.235	16.8919
517.127	23.7046
520.02	25.9662
522.913	12.8052
525.806	31.0179
528.698	4.22595
531.591	24.1236
534.484	1.68736
537.376	3.59483
540.269	0.339682
543.162	25.1678
546.054	18.0492
548.947	28.1867
551.84	36.3652
554.732	17.8607
557.625	19.9436
560.518	32.4502
563.411	8.91623
566.303	24.8898
569.196	40.9584
572.089	6.41553
574.981	20.2396
577.874	28.2139
580.767	11.2339
583.659	30.4692
586.552	11.7851
589.445	14.4652
592.338	18.6521
595.23	17.7106
598.123	2.7795
601.016	20.6222
603.908	21.3655
606.801	14.0324
609.694	13.9418
612.587	11.332
615.479	5.81443
618.372	15.8975
621.265	16.883
624.157	20.322
627.05	22.5164
629.943	14.9678
632.835	8.12098
635.728	19.0637
638.621	21.8675
641.514	10.086
644.406	25.5325
647.299	7.42011
650.192	25.1562
653.084	3.93333
655.977	19.6844
658.87	24.0469
661.763	26.2278
664.655	7.10186
667.548	12.5607
670.441	28.6109
673.333	11.0923
676.226	31.8457
679.119	22.542
682.011	18.119
684.904	13.5448
687.797	27.0045
690.689	9.18224
693.582	37.3697
696.475	12.0625
699.367	34.9008
702.26	18.975
705.153	16.9838
708.046	15.5342
710.938	24.8037
713.831	36.9747
716.724	28.1741
719.616	17.5049
722.509	14.3907
725.402	3.75829
728.294	28.2134
731.187	8.80086
734.08	13.1909
736.973	11.0576
739.865	22.6183
742.758	6.658
745.651	17.7824
748.543	35.3787
751.436	17.6012
754.329	35.8248
757.221	5.24059
760.114	16.1585
763.007	19.3861
765.9	3.52244
768.792	10.3634
771.685	4.5006
774.578	9.55385
777.47	18.0217
780.363	24.324
783.256	23.0801
786.149	32.006
789.041	33.3031
791.934	16.1018
794.827	22.9813
797.719	24.1442
800.612	20.1366
803.505	15.6627
806.397	16.043
809.29	32.1673
812.183	11.8995
815.076	3.62227
817.968	19.4777
820.861	11.1405
823.754	23.7368
826.646	22.1086
829.539	30.2781
832.432	10.171
835.324	40.3741
838.217	9.25036
841.11	18.3624
844.003	13.4385
846.895	1.35898
849.788	14.6814
852.681	3.6815
855.573	11.6446
858.466	22.479
861.359	26.8026
864.251	39.7213
867.144	14.1325
870.037	16.5079
872.929	3.04856
875.822	2.2319
878.715	12.4339
881.608	31.6226
884.5	2.541
887.393	5.37741
890.286	12.9114
893.178	6.80497
896.071	18.6089
898.964	12.8112
901.856	16.0065
904.749	32.4943
907.642	13.8537
910.535	5.3738
913.427	28.8331
916.32	29.6971
919.213	11.9348
922.105	13.1423
924.998	16.5493
927.891	9.00194
930.783	8.23179
933.676	3.66909
936.569	12.0391
939.462	20.659
942.354	7.26293
945.247	44.8625
948.14	21.1495
951.032	15.7005
953.925	15.8954
956.818	22.1741
959.71	19.9938
962.603	15.9185
965.496	23.2107
968.389	8.75244
971.281	13.2937
974.174	1.45012
977.067	16.7316
979.959	13.3863
982.852	13.4967
985.745	10.74
988.638	14.0044
991.53	49.1598
994.423	16.5585
997.316	16.2001
1000.21	7.51875
1003.1	24.3865
1005.99	4.73037
1008.89	21.6991
1011.78	15.0077
1014.67	15.7084
1017.56	37.1672
1020.46	16.7576
1023.35	13.5031
1026.24	0.995571
1029.13	32.2281
1032.03	15.902
1034.92	13.4457
1037.81	22.4801
1040.71	5.79462
1043.6	3.2168
1046.49	0.249638
1049.38	5.67776
1052.28	0.409946
1055.17	16.8677
1058.06	10.3605
1060.95	23.1708
1063.85	30.0378
1066.74	8.76432
1069.63	15.5243
1072.53	44.1825
1075.42	17.6674
1078.31	8.30403
1081.2	17.1955
1084.1	19.0028
1086.99	16.4953
1089.88	22.8512
1092.78	13.982
1095.67	1.81167
1098.56	33.5346
1101.45	28.1407
1104.35	30.9649
1107.24	13.814
1110.13	17.0002
1113.02	5.98825
1115.92	31.6482
1118.81	4.93062
1121.7	7.79401
1124.59	25.1892
1127.49	6.14149
1130.38	23.9457
1133.27	3.25509
1136.16	35.8186
1139.06	34.8074
1141.95	25.8169
1144.84	5.95409
1147.74	8.01414
1150.63	11.6138
1153.52	12.6684
1156.41	0.865765
1159.31	22.2658
1162.2	11.5727
1165.09	8.96851
1167.98	14.094
1170.88	16.8678
1173.77	31.4168
1176.66	16.6205
1179.56	5.61396
1182.45	18.8361
1185.34	9.47612
1188.23	1.48158
1191.13	2.56876
1194.02	1.03772
1196.91	17.6876
1199.81	13.4784
1202.7	4.30892
1205.59	16.476
1208.48	18.8128
1211.38	23.1193
1214.27	25.697
1217.16	17.2199
1220.05	18.5816
1222.95	12.4877
1225.84	4.49006
1228.73	4.6208
1231.62	20.2306
1234.52	29.9579
1237.41	3.5129
1240.3	5.73759
1243.19	0.060081
