Measurement: Raman, 532 nm, unoriented, Raman Data Processed
Mineral: Chlorapatite
Rruff sample: R060192
Ideal chemistry: Ca_5_(PO_4_)_3_Cl
Locality: Parelhas, Rio Grande de Norte, Brazil
Source: Luiz Menezes
Description: Colorless to gray fine-grained parallel aggregates
Measured chemistry: (Ca_4.97_Mn_0.03_)_Σ=5_(P_1.00_O_4_)_3_(Cl_0.69_(OH)_0.29_F_0.02_)_Σ=1_ ; trace amounts of Sr ; (OH) estimated by difference and stoichiometry
Raman shift (cm-1)	intensity
151.673	0
154.565	1.55273
157.458	27.2578
160.351	48.416
163.244	112.097
166.136	94.0059
169.029	79.2666
171.922	33.9629
174.814	11.1885
177.707	66.1846
180.6	97.4912
183.493	159.685
186.385	130.526
189.278	90.8594
192.171	102.291
195.063	87.2715
197.956	75.9785
200.849	3.54883
203.741	9.22559
206.634	15.7773
209.527	17.1592
212.419	11.3525
215.312	46.8525
218.205	26.7256
221.097	40.1357
223.99	22.3154
226.883	13.7402
229.776	18.8887
232.668	30.1582
235.561	47.1338
238.454	74.8916
241.346	61.0586
244.239	62.8965
247.132	65.4268
250.025	68.6328
252.917	85.7344
255.81	130.295
258.703	123.09
261.595	143.498
264.488	127.519
267.381	134.385
270.273	87.3086
273.166	64.2363
276.059	99.5059
278.952	186.785
281.844	232.027
284.737	149.361
287.63	151.947
290.522	224.387
293.415	132.09
296.308	107.84
299.2	90.6934
302.093	111.197
304.986	79.5176
307.878	92.8418
310.771	72.2129
313.664	55.0918
316.557	114.894
319.449	96.5469
322.342	68.2129
325.235	50.9883
328.127	67.4727
331.02	55.1855
333.913	58.0918
336.805	106.078
339.698	49.4414
342.591	13.8652
345.484	101.951
348.376	65.6231
351.269	11.9375
354.162	47.9883
357.054	110.494
359.947	153.127
362.84	69.2344
365.733	33.5664
368.625	23.4551
371.518	5.32617
374.411	42.2051
377.303	68.3418
380.196	95.9961
383.089	35.8359
385.981	56.584
388.874	71.8379
391.767	50.3906
394.659	46.3535
397.552	25.9668
400.445	7.45703
403.338	80.7793
406.23	103.152
409.123	43.7285
412.016	154.344
414.908	73.957
417.801	117.721
420.694	38.1387
423.587	101.037
426.479	110.106
429.372	134.777
432.265	152.928
435.157	70.5742
438.05	107.371
440.943	78.125
443.835	86.9746
446.728	57.4434
449.621	155.947
452.514	139.977
455.406	103.668
458.299	81.4648
461.192	11.8789
464.084	44.9141
466.977	34.3691
469.87	11.4473
472.762	14.6191
475.655	79.291
478.548	145.727
481.44	132.519
484.333	155.486
487.226	64.916
490.119	116.922
493.011	106.945
495.904	155.346
498.797	36.3184
501.689	39.6055
504.582	45.7188
507.475	49.6406
510.368	100.019
513.26	93.8281
516.153	150.805
519.046	83.5527
521.938	96.6719
524.831	154.342
527.724	150.717
530.616	38.3828
533.509	45.1816
536.402	96.3828
539.294	95.6367
542.187	58.8477
545.08	100.785
547.973	152.523
550.865	168.773
553.758	195.305
556.651	109.434
559.543	157.719
562.436	133.969
565.329	131.508
568.221	96.7578
571.114	162.414
574.007	134.406
576.9	63.8125
579.792	14.8398
582.685	11.3359
585.578	23.4023
588.47	110.828
591.363	136.293
594.256	123.625
597.148	117.523
600.041	103.152
602.934	3.49219
605.827	0.386719
608.719	17.168
611.612	78.0547
614.505	43.3086
617.397	36.7852
620.29	8.26172
623.183	53.8438
626.075	45.3555
628.968	62.7891
631.861	43.6797
634.754	7.14062
637.646	17.8555
640.539	37.1875
643.432	49.9844
646.324	53.8672
649.217	15.7148
652.11	27.2734
655.002	180.293
657.895	140.16
660.788	202.777
663.681	108.012
666.573	125.656
669.466	151.316
672.359	135.609
675.251	28.6875
678.144	73.3828
681.037	134.68
683.929	179.66
686.822	171.152
689.715	188.719
692.607	206.961
695.5	10.6797
698.393	166.141
701.286	196.504
704.178	303.766
707.071	289.773
709.964	212.137
712.856	86.3555
715.749	85.8789
718.642	171.438
721.534	191.363
724.427	80.4453
727.32	33.543
730.213	101.938
733.105	191.496
735.998	123.086
738.891	54.9297
741.783	43.8359
744.676	23.1523
747.569	76.0469
750.462	18.8984
753.354	33.3633
756.247	126.836
759.14	159.969
762.032	92.0391
764.925	94.3281
767.818	139.016
770.71	180.082
773.603	246.758
776.496	47.6289
779.389	19.9453
782.281	10.4219
785.174	60.6094
788.067	13.7539
790.959	86.0156
793.852	199.652
796.745	190.445
799.637	80.707
802.53	148.664
805.423	146.305
808.316	262.043
811.208	212.547
814.101	190.008
816.994	144.016
819.886	57.4766
822.779	150.617
825.672	238.082
828.564	176.231
831.457	142.75
834.35	16.375
837.242	67.6172
840.135	237.871
843.028	258.914
845.921	105.809
848.813	35.0703
851.706	132.769
854.599	260.172
857.491	303.609
860.384	81.5312
863.277	3.52734
866.169	192.566
869.062	129.781
871.955	130.902
874.848	52.5586
877.74	107.785
880.633	80.4453
883.526	162.559
886.418	79.9922
889.311	224.035
892.204	293.898
895.096	296.894
897.989	315.859
900.882	275.883
903.775	282.719
906.667	250.691
909.56	121.731
912.453	38.1797
915.345	264.285
918.238	391.555
921.131	298.121
924.024	128.812
926.916	125.562
929.809	6.09766
932.702	124.008
935.594	84.9375
938.487	211.707
941.38	237.211
944.272	338.727
947.165	424.242
950.058	315.711
952.951	440.438
955.843	489.266
958.736	906.203
961.629	889.016
964.521	675.414
967.414	147.047
970.307	122.617
973.199	19.7812
976.092	154.195
978.985	323.516
981.877	139.086
984.77	24.875
987.663	79.5703
990.556	6.78906
993.448	33.4062
996.341	28.5469
999.234	71.25
1002.13	244.617
1005.02	162.898
1007.91	80.2344
1010.8	45.75
1013.7	91.9062
1016.59	118.125
1019.48	113.883
1022.38	244.125
1025.27	21.7734
1028.16	109.68
1031.05	179.914
1033.95	229.117
1036.84	309.547
1039.73	249.461
1042.62	270.367
1045.52	173.805
1048.41	165.227
1051.3	214.734
1054.19	153.945
1057.09	77.6328
1059.98	55.4844
1062.87	153.406
1065.77	237.242
1068.66	90.9844
1071.55	254.312
1074.44	27.8281
1077.34	250.289
1080.23	109.445
1083.12	170.57
1086.02	238.344
1088.91	41.8984
1091.8	42.5781
1094.69	19.4688
1097.59	24.9453
1100.48	133.164
1103.37	134.039
1106.26	412.055
1109.16	246.977
1112.05	348.891
1114.94	182.047
1117.83	92.5156
1120.73	132.188
1123.62	238.656
1126.51	70.8828
1129.4	177.68
1132.3	224.703
1135.19	391.125
1138.08	281.68
1140.98	2.83594
1143.87	103.43
1146.76	173.211
1149.65	245.383
1152.55	260.898
1155.44	256.82
1158.33	121.977
1161.22	166.32
1164.12	200.164
1167.01	225.711
1169.9	118.383
1172.8	81.9531
1175.69	108.258
1178.58	177.352
1181.47	299.641
1184.37	198.945
1187.26	33.1562
1190.15	32.8984
1193.05	298.109
1195.94	303.484
1198.83	273.227
1201.72	303.227
1204.62	80.1953
1207.51	182.883
1210.4	145.273
1213.29	130.117
1216.19	347.344
1219.08	360.977
1221.97	427.336
1224.86	371.961
1227.76	190.852
1230.65	16.4531
1233.54	60.4844
1236.43	51.1406
1239.33	11.4219
1242.22	225.289
1245.11	362.172
1248.01	358.062
1250.9	191.594
1253.79	65.8281
1256.68	18.9531
1259.58	248.469
1262.47	233.102
1265.36	338
1268.26	351.242
1271.15	363.875
1274.04	154.094
1276.93	113.734
1279.83	211.203
1282.72	293.711
1285.61	330.383
1288.5	263.656
1291.4	150.648
1294.29	220.75
1297.18	146.375
1300.07	272.094
1302.97	1.48438
