Measurement: Raman, 514 nm, unoriented, Raman Data Processed
Mineral: Chlorargyrite
Rruff sample: R050360
Ideal chemistry: AgCl
Locality: Broken Hill, New South Wales, Australia
Source: University of Arizona Mineral Museum
Description: Yellowish-gray colloidal aggregate
Raman shift (cm-1)	intensity
111.473	0
115.644	419.072
119.813	701.734
123.981	597.963
128.146	763.703
132.309	1633.64
136.47	2060.35
140.63	4325.98
144.787	6088.11
148.942	6408.53
153.096	4354.01
157.247	2444.33
161.396	1468.94
165.544	987.637
169.689	713.283
173.833	554.158
177.974	421.139
182.114	530.719
186.251	793.926
190.387	748.307
194.52	1197.83
198.652	1708.91
202.782	1733.73
206.909	1925.37
211.035	2136.66
215.159	2064.22
219.281	2111.2
223.4	1884.51
227.518	2011.22
231.634	1581.83
235.748	1481.41
239.86	940.111
243.97	961.23
248.079	550.186
252.185	316.953
256.289	1.008
260.391	21.574
264.492	112.211
268.59	59.332
272.687	79.598
276.781	211.385
280.874	260.146
284.964	95.162
289.053	104.156
293.14	115.434
297.225	26.666
301.308	67.697
305.389	77.361
309.468	129.287
313.545	264.02
317.62	427.379
321.693	368.258
325.765	544.533
329.834	475.33
333.902	620.631
337.967	576.656
342.031	598.514
346.093	904.109
350.153	777.227
354.21	772.604
358.267	803.432
362.321	931.865
366.373	1099.17
370.423	1170.75
374.471	1058.37
378.518	1164.65
382.563	1316.31
386.605	1206.21
390.646	1334.01
394.685	1418.87
398.722	1600.21
402.757	1326.1
406.79	1493.46
410.821	1323.24
414.851	1180.14
418.878	1315.93
422.904	1565.79
426.927	1455.09
430.949	1277.69
434.969	1257.61
438.987	792.875
443.003	810.027
447.018	787.002
451.03	537.613
455.041	877.777
459.049	417.266
463.056	549.285
467.061	593.518
471.064	559.928
475.065	551.012
479.064	611.766
483.062	633.264
487.057	651.305
491.051	557.449
495.043	436.875
499.032	595.977
503.02	605.062
507.007	643.34
510.991	612.199
514.973	621.898
518.954	712.328
522.933	565.818
526.91	639.26
530.885	531.717
534.858	218.145
538.829	559.061
542.799	379.779
546.766	599.324
550.732	558.689
554.696	350.697
558.658	410.238
562.618	201.975
566.576	310.562
570.533	327.102
574.488	299.73
578.44	179.561
582.391	452.283
586.341	211.117
590.288	350.631
594.233	43.686
598.177	283.199
602.119	411.219
606.059	490.18
609.997	281.09
613.933	361.217
617.868	705.371
621.801	770.523
625.731	510.643
629.66	1001.7
633.588	1417.89
637.513	767.076
641.437	964.215
645.358	587.984
649.278	772.229
653.196	416.389
657.113	599.693
661.027	615.805
664.94	290.533
668.851	491.482
672.76	169.555
676.667	277.986
680.572	110.277
684.476	412.076
688.378	352.811
692.278	369.355
696.176	681.598
700.072	207.529
703.967	256.492
707.86	361.6
711.751	330.438
715.64	45.064
719.527	78.887
723.413	155.053
727.297	13.504
731.179	191.479
735.059	32.686
738.937	242.766
742.814	336.137
746.689	343.477
750.562	504.705
754.433	111.697
758.303	85.787
762.17	128.873
766.036	56.021
769.901	54.096
773.763	91.109
777.624	35.938
781.482	171.652
785.339	54.49
789.195	90.391
793.048	53.723
796.9	555.41
800.75	37.586
804.598	34.416
808.445	403.879
812.289	55.895
816.132	33.16
819.973	9.193
823.813	192.258
827.65	268.408
831.486	332.514
835.32	63.039
839.152	405.076
842.983	779.664
846.812	642.445
850.639	124.008
854.464	59.324
858.288	375.014
862.11	262.994
865.93	445.93
869.748	1003.34
873.564	566.922
877.379	117.43
881.192	491.385
885.004	272.279
888.813	13.807
892.621	378.381
896.427	296.195
900.232	541.643
904.034	324.902
907.835	365.326
911.634	283.197
915.432	228.078
919.227	95.816
923.021	211.51
926.813	348.17
930.604	277.916
934.393	103.18
938.18	25.244
941.965	485.379
945.749	149.707
949.53	233.797
953.311	434.312
957.089	297.344
960.866	306.264
964.641	258.102
968.414	437.988
972.185	237.971
975.955	347.756
979.723	298.396
983.49	295.738
987.254	553.549
991.017	513.021
994.779	449.404
998.538	507.703
1002.3	594.773
1006.05	635.225
1009.81	333.164
1013.56	610.387
1017.31	363.613
1021.06	277.637
1024.81	506.346
1028.55	383.055
1032.3	547.83
1036.04	806.285
1039.78	544.588
1043.52	405.508
1047.26	690.787
1050.99	939.014
1054.73	1109.98
1058.46	893.355
1062.19	704.645
1065.92	502.303
1069.65	798.469
1073.37	664.26
1077.1	543.658
1080.82	760.504
1084.54	642.736
1088.26	923.346
1091.97	383.49
1095.69	501.18
1099.4	351.109
1103.12	347.535
1106.83	245.834
1110.54	89.971
1114.24	91.51
1117.95	236.248
1121.65	236.975
1125.35	300.377
1129.06	367.375
1132.75	280.107
1136.45	97.898
1140.15	552.148
1143.84	117.16
1147.53	121.293
1151.22	194.965
1154.91	296.613
1158.6	46.213
1162.28	327.053
1165.97	188.543
1169.65	281.977
1173.33	33.469
1177.01	320.746
1180.69	363.98
1184.36	338.859
1188.04	176.227
1191.71	197.551
1195.38	19.363
1199.05	393.293
1202.71	231.391
1206.38	600.695
1210.04	58.184
1213.71	270.836
1217.37	257.809
1221.03	252.727
1224.68	219.656
1228.34	283.926
1231.99	238.379
1235.65	613.941
1239.3	710
1242.95	713.734
1246.59	361.23
1250.24	70.258
1253.88	266.973
1257.53	298.27
1261.17	705.234
1264.81	683.348
1268.45	192.281
1272.08	145.547
1275.72	3.094
1279.35	119.215
1282.98	350.129
1286.61	414.82
1290.24	553.867
1293.87	66.195
1297.49	379.707
1301.11	180.453
1304.73	108.109
1308.36	153.934
1311.97	528.059
1315.59	91.289
1319.2	228.453
1322.82	433.941
1326.43	217.488
1330.04	8.09
1333.65	512.652
1337.26	403.496
1340.86	446.691
1344.47	301.809
1348.07	509.938
1351.67	632.316
1355.27	773.324
1358.87	1029.25
1362.46	959.48
1366.06	949.512
1369.65	702.586
1373.24	732.414
1376.83	656.406
1380.42	400.828
1384	476.438
1387.59	636.016
1391.17	400.738
1394.75	423.188
1398.33	617.855
1401.91	308.34
1405.49	327.363
1409.06	19.359
1412.64	3.605
1416.21	267.652
1419.78	152.203
1423.35	436.129
1426.91	159.535
1430.48	107.305
1434.05	357.527
1437.61	432.395
1441.17	176.414
1444.73	157.32
1448.29	280.895
1451.84	19.703
1455.4	299.758
1458.95	0
