Measurement: Raman, 785 nm, unoriented, Raman Data Processed
Mineral: Choloalite
Rruff sample: R070140
Ideal chemistry: (Pb^2+^,Ca)_3_(Cu^2+^,Sb^5+^)_3_Te^4+^_6_O_18_Cl
Locality: McAlpine Mine, Moccasin, Tuolumne County, California, USA
Source: Michael Scott
Description: Pistachio green thin coating on quartz
Raman shift (cm-1)	intensity
141.077	0
143.969	9.56793
146.862	17.2873
149.755	5.33884
152.647	5.62611
155.54	11.5348
158.433	8.56861
161.325	8.83018
164.218	10.8512
167.111	22.172
170.004	15.2181
172.896	20.6294
175.789	15.6229
178.682	12.2739
181.574	8.34363
184.467	20.8397
187.36	22.3898
190.252	11.6239
193.145	24.9383
196.038	15.4885
198.93	14.808
201.823	21.2845
204.716	15.2007
207.609	9.444
210.501	10.2208
213.394	7.0241
216.287	18.4418
219.179	17.5237
222.072	6.95942
224.965	8.92869
227.857	4.00243
230.75	15.6883
233.643	10.458
236.536	1.52561
239.428	11.1355
242.321	10.9442
245.214	3.4918
248.106	3.30597
250.999	8.27996
253.892	1.63638
256.784	15.187
259.677	11.2805
262.57	9.44998
265.463	10.219
268.355	2.98462
271.248	8.42758
274.141	14.1387
277.033	9.80808
279.926	8.24735
282.819	9.22759
285.712	2.84724
288.604	1.88846
291.497	16.4582
294.39	4.43396
297.282	4.21641
300.175	7.9623
303.068	10.1446
305.96	3.87505
308.853	2.30431
311.746	5.89668
314.639	7.01611
317.531	13.9164
320.424	13.2792
323.317	5.01448
326.209	2.02374
329.102	9.01006
331.995	5.33905
334.887	2.5073
337.78	7.83884
340.673	1.01127
343.565	4.2919
346.458	8.89703
349.351	3.71947
352.244	3.42259
355.136	11.4214
358.029	13.2117
360.922	12.9984
363.814	0.233551
366.707	9.38522
369.6	0.160641
372.493	16.8284
375.385	7.9779
378.278	14.4385
381.171	10.4199
384.063	1.38909
386.956	2.84902
389.849	10.0596
392.741	5.28743
395.634	11.1034
398.527	13.0877
401.42	16.3157
404.312	11.0566
407.205	14.9463
410.098	13.6819
412.99	4.7243
415.883	7.83364
418.776	5.22768
421.668	0.768169
424.561	8.8547
427.454	3.13402
430.346	6.72775
433.239	10.4445
436.132	11.6656
439.025	8.22956
441.917	11.8624
444.81	18.1273
447.703	1.30952
450.595	11.5059
453.488	7.85434
456.381	5.27146
459.274	5.96772
462.166	0.925095
465.059	7.99864
467.952	7.26842
470.844	11.27
473.737	7.1347
476.63	3.86963
479.522	13.5868
482.415	12.4084
485.308	17.1386
488.2	3.84323
491.093	20.1063
493.986	12.1921
496.878	11.2109
499.771	4.42422
502.664	5.29525
505.557	7.17093
508.449	1.48493
511.342	8.22822
514.235	15.2004
517.127	6.8065
520.02	17.5532
522.913	18.8729
525.806	10.0559
528.698	12.9172
531.591	12.5689
534.484	18.4977
537.376	17.2283
540.269	15.4353
543.162	9.81094
546.054	8.01066
548.947	1.08144
551.84	10.7185
554.732	0.895081
557.625	6.87814
560.518	16.07
563.411	10.5645
566.303	15.1893
569.196	10.0929
572.089	11.828
574.981	8.92323
577.874	6.78899
580.767	17.7216
583.659	14.878
586.552	0.353508
589.445	5.24558
592.338	11.4036
595.23	1.28761
598.123	7.00429
601.016	7.29867
603.908	6.50746
606.801	4.19742
609.694	2.77676
612.587	9.77804
615.479	0.580139
618.372	5.64344
621.265	3.43353
624.157	1.13475
627.05	1.43619
629.943	10.2713
632.835	11.0021
635.728	1.27372
638.621	10.857
641.514	8.50037
644.406	5.55191
647.299	11.4409
650.192	1.48042
653.084	9.66697
655.977	0.937546
658.87	4.98341
661.763	3.69819
664.655	16.7114
667.548	10.138
670.441	11.3244
673.333	21.903
676.226	8.0355
679.119	12.6985
682.011	21.9161
684.904	8.61719
687.797	13.2285
690.689	18.1571
693.582	23.0552
696.475	17.4878
699.367	14.0959
702.26	25.5544
705.153	19.6907
708.046	16.5336
710.938	9.89428
713.831	19.0172
716.724	8.27426
719.616	18.8194
722.509	15.3464
725.402	16.8857
728.294	13.1466
731.187	27.1719
734.08	13.4615
736.973	11.7111
739.865	13.5202
742.758	23.9884
745.651	13.4944
748.543	25.2017
751.436	10.1648
754.329	11.7034
757.221	3.32252
760.114	10.7741
763.007	14.3314
765.9	8.0627
768.792	6.06555
771.685	8.87127
774.578	1.88182
777.47	13.7484
780.363	9.45953
783.256	13.0038
786.149	14.0476
789.041	3.25944
791.934	0.372711
794.827	14.766
797.719	5.28886
800.612	19.1769
803.505	15.5702
806.397	8.90939
809.29	2.13684
812.183	11.7856
815.076	9.93531
817.968	12.1964
820.861	14.8999
823.754	14.4591
826.646	16.8338
829.539	14.6264
832.432	12.5234
835.324	3.67041
838.217	18.9446
841.11	8.96868
844.003	19.6878
846.895	26.1313
849.788	15.3235
852.681	13.0407
855.573	15.2953
858.466	6.02152
861.359	16.1412
864.251	6.78896
867.144	9.49353
870.037	8.63297
872.929	8.88265
875.822	1.93885
878.715	9.69345
881.608	0.644241
884.5	14.675
887.393	3.47661
890.286	6.668
893.178	0.402176
896.071	4.40435
898.964	11.9169
901.856	4.57755
904.749	15.0073
907.642	7.55344
910.535	16.2132
913.427	10.615
916.32	14.747
919.213	8.12746
922.105	11.6053
924.998	22.1972
927.891	5.95834
930.783	5.4755
933.676	9.16664
936.569	6.41305
939.462	9.06104
942.354	13.4973
945.247	9.40379
948.14	14.3668
951.032	0.857002
953.925	8.13966
956.818	8.72417
959.71	5.59007
962.603	6.72635
965.496	12.1538
968.389	5.36312
971.281	6.76706
974.174	17.2149
977.067	13.1678
979.959	0.691772
982.852	5.7449
985.745	9.08202
988.638	0.076302
991.53	9.03784
994.423	6.32909
997.316	11.4262
1000.21	3.25964
1003.1	12.6499
1005.99	21.171
1008.89	12.5125
1011.78	6.19668
1014.67	10.83
1017.56	16.4495
1020.46	12.9102
1023.35	7.62131
1026.24	7.64606
1029.13	11.888
1032.03	2.78836
1034.92	4.29259
1037.81	4.32784
1040.71	17.0597
1043.6	15.0451
1046.49	10.0058
1049.38	12.7788
1052.28	1.76598
1055.17	2.75998
1058.06	5.05221
1060.95	6.95015
1063.85	6.18597
1066.74	8.49531
1069.63	6.3544
1072.53	17.6264
1075.42	2.66401
1078.31	12.1989
1081.2	11.96
1084.1	7.31606
1086.99	11.2728
1089.88	15.279
1092.78	4.72595
1095.67	11.4929
1098.56	5.78265
1101.45	8.09625
1104.35	3.22848
1107.24	14.7774
1110.13	6.7451
1113.02	16.6641
1115.92	10.3578
1118.81	8.04445
1121.7	18.6439
1124.59	5.81954
1127.49	15.276
1130.38	14.3197
1133.27	11.758
1136.16	16.5715
1139.06	16.7134
1141.95	7.57565
1144.84	13.0361
1147.74	1.91602
1150.63	4.82131
1153.52	9.99519
1156.41	16.0453
1159.31	4.42571
1162.2	12.9381
1165.09	10.9843
1167.98	0.325012
1170.88	0.696129
1173.77	2.08409
1176.66	0.863251
1179.56	10.2175
1182.45	4.94398
1185.34	13.4359
1188.23	9.49727
1191.13	7.40977
1194.02	6.31206
1196.91	0.684448
1199.81	2.06448
1202.7	8.5724
1205.59	4.25626
1208.48	9.54766
1211.38	8.04302
1214.27	0.469627
1217.16	15.0668
1220.05	15.202
1222.95	11.6897
1225.84	15.6113
1228.73	10.0219
1231.62	11.4911
1234.52	7.63171
1237.41	10.145
1240.3	4.63522
1243.19	2.29295
