Measurement: Raman, 780 nm, unoriented, Raman Data Processed
Mineral: Chrysoberyl
Rruff sample: R110114
Ideal chemistry: BeAl_2_O_4_
Locality: Synthetic
Source: Gemological Institute of America
Description: A cut, blue-green to purple (dependent on incident light source) (0.80ct) alexandrite gemstone, grown by crystal pulling.
Raman shift (cm-1)	intensity
103.174	1.26807
106.549	19.8999
109.924	30.2798
113.299	33.731
116.674	38.7534
120.048	27.9536
123.423	36.9605
126.798	53.5269
130.173	53.1006
133.548	69.104
136.923	68.7749
140.297	73.8564
143.672	87.3369
147.047	88.5757
150.422	76.0552
153.797	66.0161
157.171	58.4028
160.546	61.8677
163.921	29.7817
167.296	17.4395
170.671	17.7178
174.046	4.0415
177.42	12.0864
180.795	2.91992
184.17	14.187
187.545	15.2363
190.92	9.30762
194.294	5.74414
197.669	28.0918
201.044	40.3569
204.419	65.8721
207.794	124.34
211.168	162.649
214.543	204.434
217.918	248.599
221.293	280.32
224.668	295.432
228.043	317.057
231.417	331.5
234.792	346.494
238.167	355.362
241.542	364.816
244.917	359.617
248.292	354.886
251.666	357.574
255.041	367.139
258.416	386.56
261.791	376.661
265.166	392.269
268.54	381.038
271.915	369.273
275.29	354.321
278.665	333.184
282.04	317.446
285.414	275.6
288.789	244.053
292.164	206.296
295.539	177.242
298.914	152.419
302.288	109.9
305.663	83.6812
309.038	66.7817
312.413	52.8648
315.788	27.1807
319.163	22.1279
322.537	5.17481
325.912	1.4126
329.287	3.76367
332.662	2.47315
336.037	0.738281
339.411	6.74414
342.786	11.1807
346.161	27.977
349.536	62.7437
352.911	47.5894
356.286	51.8081
359.66	19.6572
363.035	10.4639
366.41	6.39746
369.785	17.5859
373.16	18.5737
376.534	1.83154
379.909	8.84424
383.284	0.225098
386.659	3.25195
390.034	0.778809
393.409	5.59521
396.783	11.2935
400.158	9.27979
403.533	22.3711
406.908	25.1968
410.283	21.3398
413.658	34.6589
417.032	55.8621
420.407	86.8769
423.782	84.3023
427.157	51.938
430.532	64.9749
433.906	68.6431
437.281	62.4353
440.656	56.1397
444.031	47.7493
447.406	46.467
450.781	22.7539
454.155	10.6663
457.53	24.7876
460.905	23.0974
464.28	9.88818
467.655	29.6682
471.029	44.6245
474.404	111.082
477.779	258.444
481.154	164.135
484.529	27.4912
487.904	28.8369
491.278	22.5579
494.653	20.5884
498.028	22.3967
501.403	33.6221
504.778	39.9463
508.152	28.9358
511.527	29.6614
514.902	66.9265
518.277	139.889
521.652	62.0107
525.026	19.8892
528.401	5.02564
531.776	2.55957
535.151	5.94458
538.526	2.25147
541.9	14.457
545.275	31.5781
548.65	38.637
552.025	19.9426
555.4	2.48682
558.775	27.5784
562.149	33.6636
565.524	59.6926
568.899	31.6492
572.274	10.0642
575.649	0.796143
579.024	2.44482
582.398	6.03882
585.773	0.342041
589.148	0.189453
592.523	7.70337
595.898	6.58106
599.273	8.75049
602.647	0.35376
606.022	9.79028
609.397	3.28638
612.772	2.3335
616.146	7.23462
619.521	5.14526
622.896	4.42773
626.271	5.87573
629.646	6.45435
633.021	0.404053
636.395	2.20435
639.77	22.7402
643.145	13.8706
646.52	13.2017
649.895	12.491
653.269	15.3979
656.644	8.95166
660.019	13.3892
663.394	0.015381
666.769	13.5791
670.144	28.241
673.518	50.5217
676.893	94.614
680.268	49.2502
683.643	18.5918
687.018	4.47436
690.393	7.62207
693.767	4.29883
697.142	1.60181
700.517	1.40967
703.892	0.879883
707.267	6.47436
710.641	16.7695
714.016	15.6621
717.391	4.00366
720.766	10.6682
724.141	3.12866
727.515	3.02344
730.89	11.505
734.265	9.77161
737.64	9.00964
741.015	10.2516
744.39	21.5098
747.764	7.90332
751.139	8.31311
754.514	6.09045
757.889	6.52307
761.264	6.41406
764.639	5.87476
768.013	14.0236
771.388	26.4055
774.763	55.4797
778.138	82.9368
781.513	71.1722
784.887	38.5131
788.262	18.4546
791.637	15.3931
795.012	9.47815
798.387	3.91577
801.761	6.91089
805.136	1.76221
808.511	5.64331
811.886	4.91565
815.261	7.47876
818.636	16.9352
822.01	8.8158
825.385	14.1837
828.76	7.92615
832.135	6.31201
835.51	8.30884
838.885	14.9949
842.259	5.56799
845.634	8.29993
849.009	8.51257
852.384	6.43298
855.759	6.14148
859.133	10.5217
862.508	7.42139
865.883	4.44934
869.258	1.24487
872.633	4.73633
876.007	6.19482
879.382	6.76111
882.757	4.39392
886.132	6.69543
889.507	2.47412
892.881	0.85144
896.256	1.58081
899.631	1.76941
903.006	1.78906
906.381	3.86499
909.756	7.0332
913.13	5.96802
916.505	13.9045
919.88	18.1307
923.255	34.0239
926.63	53.7655
930.005	89.8668
933.379	97.8096
936.754	79.6064
940.129	48.6523
943.504	35.7751
946.879	22.1202
950.253	12.4259
953.628	17.088
957.003	8.32227
960.378	8.99121
963.753	4.77405
967.128	2.96289
970.502	11.0315
973.877	5.05249
977.252	3.24866
980.627	1.09192
984.002	6.27356
987.376	2.66174
990.751	9.79077
994.126	9.68091
997.501	7.90271
1000.88	4.30286
1004.25	7.46216
1007.62	5.41675
1011	6.18726
1014.38	5.61133
1017.75	3.42651
1021.12	6.81567
1024.5	7.57288
1027.87	6.45288
1031.25	10.6392
1034.62	11.4734
1038	10.1326
1041.37	5.37195
1044.75	4.23926
1048.12	0.622192
1051.5	5.98706
1054.87	3.43726
1058.25	5.27393
1061.62	8.59509
1065	4.97534
1068.37	6.5929
1071.75	6.2666
1075.12	6.67127
1078.5	7.35547
1081.87	9.59509
1085.25	3.03845
1088.62	7.16687
1092	6.41894
1095.37	8.37439
1098.74	5.44446
1102.12	5.12219
1105.49	2.16357
1108.87	6.23901
1112.24	1.73474
1115.62	4.70837
1118.99	0.662476
1122.37	2.29968
1125.74	1.54724
1129.12	4.07373
1132.49	4.07288
1135.87	3.86267
1139.24	8.3136
1142.62	7.01013
1145.99	5.40515
1149.37	5.03638
1152.74	8.78912
1156.12	4.44672
1159.49	7.36304
1162.87	6.69354
1166.24	6.22436
1169.62	6.78259
1172.99	7.31714
1176.37	9.37152
1179.74	12.0209
1183.12	8.34302
1186.49	11.4147
1189.87	8.99225
1193.24	12.2805
1196.62	7.78479
1199.99	6.72015
1203.37	4.30005
1206.74	9.11078
1210.11	3.81427
1213.49	7.62457
1216.86	5.99304
1220.24	8.33795
1223.61	4.76868
1226.99	1.77173
1230.36	4.28332
1233.74	4.76825
1237.11	0.946167
1240.49	0.979431
1243.86	1.26001
1247.24	5.6029
1250.61	2.25055
1253.99	0.417114
1257.36	3.57452
1260.74	7.94043
1264.11	4.85583
1267.49	9.08032
1270.86	9.1944
1274.24	3.31622
1277.61	4.0556
1280.98	4.08758
1284.36	9.90973
