Measurement: Raman, 532 nm, unoriented, Raman Data Processed
Mineral: Chrysoberyl
Rruff sample: R110114
Ideal chemistry: BeAl_2_O_4_
Locality: Synthetic
Source: Gemological Institute of America
Description: A cut, blue-green to purple (dependent on incident light source) (0.80ct) alexandrite gemstone, grown by crystal pulling.
Raman shift (cm-1)	intensity
177.273	0
180.166	33.2598
183.059	29.2129
185.951	2.1875
188.844	25.0371
191.737	29.2061
194.629	34.9971
197.522	62.2129
200.415	76.6201
203.308	101.614
206.2	98.5635
209.093	66.9873
211.986	35.627
214.878	4.67529
217.771	1.34228
220.664	6.5459
223.556	6.23828
226.449	12.0376
229.342	4.81738
232.234	4.94727
235.127	41.5088
238.02	83.436
240.913	114.765
243.805	116.173
246.698	149.49
249.591	168.855
252.483	154.75
255.376	179.089
258.269	195.818
261.161	180.715
264.054	181.857
266.947	189.109
269.84	204.686
272.732	207.247
275.625	225.763
278.518	210.235
281.41	193.465
284.303	145.576
287.196	126.873
290.089	126.214
292.981	127.156
295.874	136.925
298.767	143.27
301.659	142.534
304.552	147.929
307.445	149.69
310.337	139.954
313.23	120.995
316.123	116.775
319.015	100.442
321.908	91.1953
324.801	69.981
327.694	44.9585
330.586	30.1323
333.479	51.271
336.372	64.8892
339.264	73.5523
342.157	57.6665
345.05	61.5859
347.942	50.7085
350.835	73.5557
353.728	86.4766
356.621	79.8706
359.513	67.5254
362.406	57.0737
365.299	39.311
368.191	72.894
371.084	84.2207
373.977	67.9356
376.87	33.4307
379.762	21.5337
382.655	15.4116
385.548	23.9834
388.44	0.871094
391.333	5.26709
394.226	8.2373
397.118	1.34863
400.011	2.80469
402.904	0.27832
405.796	6.67236
408.689	1.75684
411.582	12.4365
414.475	29.7769
417.367	25.23
420.26	26.9883
423.153	23.7324
426.045	16.376
428.938	28.0928
431.831	27.0874
434.724	36.5249
437.616	14.3521
440.509	11.3818
443.402	11.748
446.294	16.0102
449.187	13.5898
452.08	1.12793
454.972	2.09912
457.865	10.937
460.758	24.2148
463.651	10.7832
466.543	0.057129
469.436	8.20068
472.329	1.11328
475.221	28.8784
478.114	73.8906
481.007	79.2236
483.899	30.0601
486.792	25.0752
489.685	8.5293
492.577	15.5259
495.47	27.5894
498.363	33.3545
501.256	36.6562
504.148	37.8008
507.041	30.4145
509.934	44.7661
512.826	50.0727
515.719	56.2685
518.612	61.0405
521.505	60.5864
524.397	73.5991
527.29	70.8027
530.183	48.2798
533.075	39.2749
535.968	22.353
538.861	0.655273
541.753	16.8896
544.646	19.4556
547.539	38.6343
550.432	37.2651
553.324	32.5415
556.217	34.9253
559.11	51.9853
562.002	56.2139
564.895	62.438
567.788	48.022
570.68	43.126
573.573	37.2026
576.466	51.9116
579.359	63.7769
582.251	62.2915
585.144	45.8569
588.037	57.3091
590.929	41.1685
593.822	42.667
596.715	27.2827
599.607	6.68604
602.5	5.60254
605.393	10.7642
608.285	24.2988
611.178	19.4658
614.071	23.8535
616.964	24.5176
619.856	15.7871
622.749	19.3335
625.642	9.62598
628.534	12.4473
631.427	15.8589
634.32	8.77832
637.212	22.2368
640.105	3.74951
642.998	2.48535
645.891	3.35156
648.783	2.80957
651.676	24.7544
654.569	28.5146
657.461	31.1572
660.354	22.1787
663.247	13.7271
666.139	10.6523
669.032	15.0298
671.925	31.1939
674.818	35.3794
677.71	51.0483
680.603	44.1284
683.496	41.041
686.388	45.9634
689.281	30.7686
692.174	50.7656
695.067	45.5449
697.959	50.2129
700.852	34.8955
703.745	32.6543
706.637	19.1396
709.53	41.249
712.423	45.2602
715.315	25.1963
718.208	0.64502
721.101	4.20312
723.994	5.27734
726.886	25.4824
729.779	32.8159
732.672	32.3696
735.564	37.0649
738.457	36.5142
741.35	37.0542
744.242	35.2153
747.135	42.25
750.028	51.0752
752.92	71.564
755.813	81.438
758.706	77.6577
761.599	72.3247
764.491	70.7969
767.384	79.5586
770.277	109.51
773.169	123.103
776.062	134.697
778.955	151.425
781.847	123.106
784.74	76.604
787.633	34.3145
790.526	52.103
793.418	62.5615
796.311	44.8315
799.204	36.0864
802.096	42.5332
804.989	43.4487
807.882	56.1519
810.774	37.7529
813.667	32.7705
816.56	57.0855
819.453	87.1919
822.345	68.8574
825.238	41.1348
828.131	19.5386
831.023	1.52637
833.916	15.6855
836.809	4.44043
839.702	3.05029
842.594	16.3296
845.487	25.8355
848.38	39.957
851.272	40.5483
854.165	42.4736
857.058	30.7446
859.95	46.5054
862.843	36.7349
865.736	38.023
868.629	28.3901
871.521	39.9688
874.414	60.4238
877.307	44.5361
880.199	29.7798
883.092	33.0649
885.985	39.4233
888.877	37.374
891.77	26.1211
894.663	0.755859
897.556	5.18066
900.448	11.7554
903.341	34.9307
906.234	58.3823
909.126	65.8691
912.019	69.7065
914.912	84.3442
917.804	107.038
920.697	111.927
923.59	148.697
926.482	168.745
929.375	95.3789
932.268	110.356
935.161	106.735
938.053	56.479
940.946	32.7798
943.839	26.4346
946.731	35.4297
949.624	40.919
952.517	44.6284
955.409	43.6924
958.302	22.9092
961.195	24.0708
964.088	33.1069
966.98	25.3892
969.873	25.2432
972.766	5.39844
975.658	6.97168
978.551	5.83691
981.444	0.913574
984.337	0.783203
987.229	13.5146
990.122	34.3662
993.015	67.166
995.907	59.1221
998.8	45.8057
1001.69	34.9019
1004.59	34.6377
1007.48	72.7139
1010.37	58.3603
1013.26	43.4326
1016.16	36.4605
1019.05	45.104
1021.94	61.3262
1024.83	49.9365
1027.73	49.1172
1030.62	41.5747
1033.51	51.7002
1036.4	60.4678
1039.3	38.8857
1042.19	24.811
1045.08	13.9619
1047.98	27.0376
1050.87	10.6631
1053.76	8.17725
1056.65	35.937
1059.55	39.7432
1062.44	50.8633
1065.33	27.8252
1068.22	32.874
1071.12	24.1348
1074.01	19.3691
1076.9	28.5
1079.8	28.1963
1082.69	14.5615
1085.58	3.62695
1088.47	4.57519
1091.37	7.98242
1094.26	10.2705
1097.15	19.9326
1100.04	29.7139
1102.94	13.5391
1105.83	14.9834
1108.72	23.6543
1111.62	32.3086
1114.51	23.4795
1117.4	16.3467
1120.29	28.2832
1123.19	50.8066
1126.08	20.0645
1128.97	26.4111
1131.86	22.3867
1134.76	37.5723
1137.65	59.2852
1140.54	53.0078
1143.43	32.79
1146.33	31.2568
1149.22	45.0078
1152.11	53.6543
1155.01	38.1377
1157.9	28.085
1160.79	22.7207
1163.68	40.8633
1166.58	54.1631
1169.47	38.749
1172.36	50.4004
1175.26	67.4268
1178.15	93.6406
1181.04	93.0117
1183.93	97.54
1186.83	104.015
1189.72	99.082
1192.61	88.9277
1195.5	59.8125
1198.4	73.6641
1201.29	45.0195
1204.18	58.7412
1207.07	91.7861
1209.97	112.987
1212.86	96.7978
1215.75	42.1435
1218.64	1.22754
1221.54	13.3418
1224.43	16.6816
1227.32	30.8418
1230.22	18.3242
1233.11	4.5459
1236	15.0918
1238.89	12.0654
1241.79	22.9033
1244.68	53.3291
1247.57	29.9287
1250.46	26.6699
1253.36	34.7764
1256.25	81.043
1259.14	101.147
1262.04	85.4053
1264.93	93.2246
1267.82	78.9394
1270.71	79.6328
1273.61	70.0508
1276.5	91.7275
1279.39	59.8779
1282.29	63.0078
1285.18	34.1514
1288.07	34.7353
1290.96	19.3281
1293.86	18.7773
1296.75	7.67383
1299.64	33.2978
1302.53	1.93848
