Measurement: Raman, 780 nm, unoriented, Raman Data Processed
Mineral: Cianciulliite
Rruff sample: R150124
Ideal chemistry: Mg_2_Mn^2+^Zn^2+^_2_(OH)_10_2-4H_2_O
Locality: Franklin Mine, Franklin, Sussex Co., New Jersey, USA
Source: Van King
Description: Yellow brown aggregate. A cotype sample from Peter J. Dunn.
Raman shift (cm-1)	intensity
94.9347	0
98.3096	4.82613
101.684	2.23871
105.059	3.78442
108.434	5.55719
111.809	1.5296
115.184	4.10426
118.558	2.34258
121.933	0.599808
125.308	2.72652
128.683	2.41698
132.058	0.222183
135.433	0.415924
138.807	3.99806
142.182	2.14387
145.557	0.745834
148.932	0.717758
152.307	3.41856
155.681	0.360382
159.056	0.891037
162.431	3.59256
165.806	4.2626
169.181	1.95657
172.555	3.20929
175.93	2.56477
179.305	1.85641
182.68	0.67128
186.055	1.32686
189.43	1.57552
192.804	1.85265
196.179	1.27042
199.554	1.52693
202.929	0.601837
206.304	2.5341
209.678	0.536057
213.053	3.25072
216.428	1.71066
219.803	1.15811
223.178	1.50835
226.553	3.40283
229.927	3.14945
233.302	2.33562
236.677	3.08441
240.052	1.13568
243.427	3.48286
246.801	3.52896
250.176	2.6749
253.551	0.757111
256.926	0.72963
260.301	1.18459
263.675	2.60753
267.05	1.83679
270.425	1.68504
273.8	3.02271
277.175	1.65144
280.55	0.239502
283.924	1.56218
287.299	0.755096
290.674	1.83926
294.049	1.80405
297.424	0.822525
300.798	1.15732
304.173	2.17743
307.548	2.14908
310.923	2.73065
314.298	4.05925
317.673	2.16884
321.047	1.81546
324.422	2.07614
327.797	2.2576
331.172	2.29915
334.547	0.669373
337.921	1.02135
341.296	0.803146
344.671	2.68471
348.046	0.49617
351.421	0.537628
354.796	0.513535
358.17	1.91292
361.545	0.548523
364.92	2.7319
368.295	1.80814
371.67	2.81889
375.044	3.36626
378.419	2.92421
381.794	1.61292
385.169	0.889816
388.544	1.24533
391.918	2.62657
395.293	1.36734
398.668	1.95244
402.043	3.21628
405.418	2.80469
408.793	3.22578
412.167	1.31722
415.542	0.218063
418.917	1.8614
422.292	2.00761
425.667	2.54666
429.041	0.085526
432.416	0.728577
435.791	1.76483
439.166	0.645264
442.541	1.59447
445.915	1.34686
449.29	0.383133
452.665	0.344635
456.04	2.35367
459.415	2.64014
462.789	0.324951
466.164	2.7458
469.539	1.07846
472.914	0.815231
476.289	1.27785
479.664	1.3373
483.038	1.7437
486.413	0.399261
489.788	1.11908
493.163	2.85744
496.538	3.07536
499.913	0.890503
503.287	2.06313
506.662	0.32283
510.037	2.48408
513.412	2.15417
516.787	3.30603
520.161	2.44289
523.536	0.774536
526.911	2.20387
530.286	2.65826
533.661	1.32275
537.035	0.838181
540.41	0.449799
543.785	0.733215
547.16	0.698486
550.535	1.72163
553.909	1.09557
557.284	0.754211
560.659	0.72084
564.034	1.53413
567.409	2.19281
570.784	0.684814
574.158	1.46046
577.533	2.74712
580.908	0.139999
584.283	1.5806
587.658	0.259338
591.033	0.675201
594.407	1.33579
597.782	1.14362
601.157	0.340012
604.532	2.46606
607.907	0.299759
611.281	2.16446
614.656	0.498947
618.031	2.74338
621.406	1.0426
624.781	3.18272
628.155	1.35207
631.53	2.59607
634.905	1.24028
638.28	2.83301
641.655	3.54131
645.029	2.92433
648.404	6.12018
651.779	3.97046
655.154	4.77977
658.529	6.01237
661.904	5.92564
665.278	5.30389
668.653	7.32939
672.028	6.54437
675.403	6.68849
678.778	7.60139
682.153	6.04662
685.527	5.06717
688.902	4.93311
692.277	4.14882
695.652	5.15144
699.027	2.54519
702.401	1.33232
705.776	0.931534
709.151	0.742539
712.526	0.240776
715.901	0.20092
719.275	0.757614
722.65	0.084625
726.025	1.03765
729.4	1.30495
732.775	0.13604
736.149	0.167603
739.524	0.305382
742.899	0.048576
746.274	0.502708
749.649	0.992607
753.024	2.04257
756.398	2.98431
759.773	0.193474
763.148	1.46963
766.523	1.85821
769.898	1.89732
773.273	0.479988
776.647	2.97001
780.022	1.14065
783.397	0.956924
786.772	2.85943
790.146	1.17171
793.521	1.04746
796.896	1.09712
800.271	1.27944
803.646	1.68164
807.021	0.203499
810.395	2.59652
813.77	1.34468
817.145	0.549438
820.52	2.18526
823.895	1.16167
827.269	0.439873
830.644	0.250587
834.019	0.563065
837.394	2.78769
840.769	2.72923
844.144	1.51773
847.518	0.926926
850.893	1.22427
854.268	1.36856
857.643	1.73693
861.018	1.29916
864.393	1.08955
867.767	1.98943
871.142	2.96342
874.517	2.06305
877.892	0.268776
881.266	1.44739
884.641	0.822243
888.016	1.84008
891.391	1.88757
894.766	1.82302
898.141	0.802449
901.515	0.804253
904.89	2.02515
908.265	0.905464
911.64	1.80516
915.015	1.28085
918.389	1.38495
921.764	2.14479
925.139	1.14349
928.514	0.934647
931.889	0.897095
935.264	0.212601
938.638	0.336967
942.013	2.47723
945.388	0.665665
948.763	1.62125
952.138	1.16067
955.512	0.212021
958.887	0.974068
962.262	1.50188
965.637	1.57461
969.012	1.88406
972.386	1.0825
975.761	1.12109
979.136	1.20745
982.511	1.59718
985.886	0.840073
989.261	1.4404
992.635	1.03079
996.01	0.273941
999.385	1.13367
1002.76	0.378746
1006.13	1.06361
1009.51	2.04558
1012.88	1.38319
1016.26	1.65983
1019.63	1.31421
1023.01	0.990631
1026.38	1.26575
1029.76	1.26179
1033.13	0.513672
1036.51	0.693665
1039.88	1.4918
1043.26	1.46999
1046.63	0.020569
1050.01	1.21812
1053.38	1.02772
1056.76	1.42036
1060.13	1.4115
1063.51	1.9649
1066.88	0.172905
1070.26	0.738052
1073.63	0.036613
1077.01	1.13357
1080.38	0.190773
1083.76	2.02264
1087.13	0.686165
1090.51	0.329224
1093.88	0.52121
1097.26	0.147316
1100.63	1.34332
1104	1.64255
1107.38	1.11613
1110.75	1.66036
1114.13	0.24292
1117.5	0.311554
1120.88	0.674431
1124.25	0.753487
1127.63	0.030121
1131	0.218353
1134.38	1.15427
1137.75	1.08926
1141.13	0.43811
1144.5	1.27777
1147.88	0.914093
1151.25	0.64106
1154.63	2.31168
1158	1.55496
1161.38	1.49172
1164.75	0.907196
1168.13	1.79423
1171.5	1.80705
1174.88	0.084206
1178.25	0.351883
1181.62	1.04155
1185	1.77171
1188.38	0.378357
1191.75	1.02424
1195.12	1.30959
1198.5	0.741043
1201.87	0.902199
1205.25	1.44764
1208.62	0.275307
1212	2.39084
1215.37	2.43645
1218.75	1.44501
1222.12	0.192406
1225.5	1.00671
1228.87	1.3115
1232.25	0.672791
1235.62	1.25857
1239	1.04811
1242.37	1.18175
1245.75	1.94148
1249.12	0.056412
1252.5	0.56041
1255.87	1.27922
1259.25	0.736954
1262.62	1.11036
1265.99	2.0364
1269.37	0.312141
1272.74	0.734421
1276.12	1.02135
1279.49	1.04131
1282.87	0.458481
