Measurement: Raman, 780 nm, unoriented, Raman Data Processed
Mineral: Claringbullite
Rruff sample: R090014
Ideal chemistry: Cu^2+^_4_FCl(OH)_6_
Locality: Mina Ojuela, Mapim√≠, Durango, Mexico
Source: Marcus Origlieri
Description: Electric blue platy crystals in massive cuprite
Raman shift (cm-1)	intensity
136.25	0
139.142	0.439693
142.035	0.345307
144.928	1.07494
147.82	0.586335
150.713	1.62356
153.606	1.54863
156.499	0.671845
159.391	0.846315
162.284	0.778908
165.177	1.30764
168.069	2.123
170.962	3.05648
173.855	1.86139
176.747	3.03343
179.64	1.75647
182.533	1.26099
185.425	0.300044
188.318	0.101049
191.211	0.030765
194.104	0.223992
196.996	0.05756
199.889	0.537951
202.782	0.33882
205.674	0.18271
208.567	1.13009
211.46	1.10966
214.352	1.13274
217.245	1.14256
220.138	0.392879
223.03	0.768183
225.923	0.247459
228.816	0.737484
231.709	0.639866
234.601	0.429223
237.494	0.000195
240.387	0.950954
243.279	0.638268
246.172	1.29579
249.065	1.28777
251.958	0.774405
254.85	1.3047
257.743	0.743152
260.636	0.840353
263.528	0.892475
266.421	1.26976
269.314	1.12595
272.207	2.03964
275.099	0.88759
277.992	1.00072
280.885	1.12656
283.777	0.537188
286.67	0.61024
289.563	0.453236
292.455	0.596033
295.348	0.120844
298.241	1.14456
301.134	0.750351
304.026	0.433397
306.919	0.103735
309.812	0.784439
312.704	0.127657
315.597	0.006031
318.49	0.869886
321.382	1.38292
324.275	0.237437
327.168	0.320095
330.06	0.793371
332.953	0.553818
335.846	1.38215
338.739	1.22001
341.631	0.640531
344.524	1.41085
347.417	0.92478
350.309	1.02565
353.202	0.757192
356.095	0.621418
358.987	0.336587
361.88	1.44913
364.773	0.521061
367.666	0.179967
370.558	1.37603
373.451	0.672036
376.344	0.013838
379.236	0.473524
382.129	0.199291
385.022	0.519317
387.914	0.251507
390.807	0.566338
393.7	0.030895
396.592	0.061769
399.485	0.457535
402.378	0.18576
405.271	0.036475
408.163	1.04781
411.056	0.57558
413.949	0.703194
416.841	0.003078
419.734	0.739105
422.627	1.71906
425.519	1.93164
428.412	1.39646
431.305	1.98625
434.198	2.18256
437.09	1.03496
439.983	0.563148
442.876	0.876045
445.768	0.154318
448.661	0.332983
451.554	0.158683
454.447	1.09594
457.339	0.195432
460.232	0.920305
463.125	1.11097
466.017	0.030592
468.91	0.049722
471.803	0.129265
474.695	0.755464
477.588	0.025668
480.481	0.787426
483.373	0.750843
486.266	0.783318
489.159	0.06257
492.052	0.817126
494.944	0.479473
497.837	0.944138
500.73	0.328795
503.622	1.31013
506.515	1.98949
509.408	0.682211
512.301	1.42778
515.193	1.25394
518.086	0.509152
520.979	0.176171
523.871	1.01383
526.764	0.603037
529.657	1.34221
532.549	0.613043
535.442	1.96171
538.335	1.20229
541.227	1.00094
544.12	1.40406
547.013	0.017104
549.906	0.566132
552.798	0.627152
555.691	0.064765
558.584	0.891263
561.476	0.799152
564.369	0.697204
567.262	0.548303
570.154	0.533594
573.047	0.301977
575.94	1.302
578.833	0.261338
581.725	0.626464
584.618	0.68364
587.511	0.609118
590.403	0.362212
593.296	0.963795
596.189	0.906487
599.082	0.388289
601.974	0.898802
604.867	0.5979
607.76	0.880548
610.652	0.554842
613.545	0.724823
616.438	0.079463
619.33	0.283796
622.223	0.48236
625.116	0.612836
628.009	0.386096
630.901	0.586195
633.794	0.27064
636.687	0.06481
639.579	0.130168
642.472	1.02335
645.365	0.274369
648.257	1.13339
651.15	0.72135
654.043	0.345982
656.936	0.171681
659.828	0.649504
662.721	0.803898
665.614	0.778283
668.506	0.387337
671.399	0.962762
674.292	1.07958
677.184	0.433524
680.077	0.306829
682.97	0.777935
685.862	0.80222
688.755	0.017259
691.648	0.707914
694.541	1.09544
697.433	0.812682
700.326	0.68112
703.219	0.223437
706.111	0.596456
709.004	0.246357
711.897	0.791923
714.789	1.35307
717.682	0.868727
720.575	0.494468
723.468	0.512344
726.36	0.475178
729.253	0.651928
732.146	0.525552
735.038	0.71015
737.931	0.777467
740.824	0.475461
743.716	0.507434
746.609	0.429917
749.502	0.540855
752.395	0.582645
755.287	0.248759
758.18	0.859315
761.073	0.567973
763.965	0.227929
766.858	0.182199
769.751	0.584278
772.644	0.27208
775.536	0.337551
778.429	0.336766
781.322	0.743585
784.214	0.514407
787.107	0.970301
790	0.446589
792.892	0.604604
795.785	0.031028
798.678	0.976797
801.571	1.0184
804.463	0.081387
807.356	0.52281
810.249	0.691369
813.141	0.393616
816.034	1.0809
818.927	0.677683
821.819	0.193075
824.712	0.134184
827.605	0.229353
830.497	0.785766
833.39	0.396351
836.283	0.761512
839.176	0.727121
842.068	0.828717
844.961	0.211018
847.854	1.25507
850.746	0.636956
853.639	0.014399
856.532	0.829284
859.424	0.464993
862.317	1.21974
865.21	0.703474
868.103	1.47463
870.995	0.820449
873.888	0.163141
876.781	0.611979
879.673	0.991096
882.566	1.06988
885.459	0.908652
888.351	0.443095
891.244	0.109401
894.137	1.34835
897.03	0.507572
899.922	0.433657
902.815	0.706155
905.708	0.531205
908.6	0.286642
911.493	0.965819
914.386	0.658665
917.278	0.922258
920.171	0.679665
923.064	0.709912
925.957	0.693969
928.849	0.633202
931.742	0.402246
934.635	0.064691
937.527	0.441065
940.42	0.608609
943.313	0.199691
946.205	0.54558
949.098	0.534192
951.991	0.005821
954.884	0.012527
957.776	0.223114
960.669	0.807805
963.562	0.43471
966.454	0.245723
969.347	0.781562
972.24	0.408598
975.132	0.494645
978.025	0.480155
980.918	0.392985
983.811	0.980147
986.703	0.652915
989.596	0.734002
992.489	0.992394
995.381	1.24906
998.274	0.615346
1001.17	0.23334
1004.06	0.652252
1006.95	0.522244
1009.85	0.666743
1012.74	0.544401
1015.63	0.196568
1018.52	0.812049
1021.42	0.34102
1024.31	0.369265
1027.2	1.17737
1030.09	0.195649
1032.99	0.7631
1035.88	0.729676
1038.77	0.867842
1041.66	0.108972
1044.56	0.601968
1047.45	0.433809
1050.34	0.701562
1053.23	0.8579
1056.13	0.91993
1059.02	1.28531
1061.91	0.49642
1064.81	0.715671
1067.7	0.925752
1070.59	0.147894
1073.48	1.12353
1076.38	0.644961
1079.27	0.948684
1082.16	0.934453
1085.06	0.617999
1087.95	0.230298
1090.84	0.744844
1093.73	0.442711
1096.63	0.894241
1099.52	0.581404
1102.41	0.675636
1105.3	0.190266
1108.2	0.39462
1111.09	0.15462
1113.98	0.183028
1116.88	0.487759
1119.77	0.403572
1122.66	0.63559
1125.55	0.998985
1128.45	0.823115
1131.34	0.573068
1134.23	0.656059
1137.12	1.20591
1140.02	0.894849
1142.91	0.81894
1145.8	0.145015
1148.69	0.938748
1151.59	0.812058
1154.48	0.498389
1157.37	0.881843
1160.27	0.372154
1163.16	0.943044
1166.05	1.6144
1168.94	0.533011
1171.84	0.967221
1174.73	0.802814
1177.62	0.120547
1180.51	0.184247
1183.41	0.885816
1186.3	0.883024
1189.19	1.14242
1192.09	0.192485
1194.98	0.600184
1197.87	1.03166
1200.76	0.253808
1203.66	0.47472
1206.55	1.44647
1209.44	0.468694
1212.33	1.27318
1215.23	0.01266
1218.12	1.21383
1221.01	0.644275
1223.9	0.384534
1226.8	0.240445
1229.69	0.511106
1232.58	0.42477
1235.47	0.941812
1238.37	1.70227
1241.26	0.57215
1244.15	0.994937
1247.05	1.17817
1249.94	0.971964
1252.83	0.802598
1255.72	0.405919
1258.62	0.7571
1261.51	1.22179
1264.4	1.53855
1267.3	0.161193
1270.19	0.430041
1273.08	1.03713
1275.97	1.14336
1278.87	0.891085
1281.76	0.013066
1284.65	0.14817
