Measurement: Raman, 780 nm, unoriented, Raman Data Processed
Mineral: Claraite
Rruff sample: R110020
Ideal chemistry: (Cu^2+^,Zn^2+^)_15_(CO_3_)_4_(As^5+^O_4_)_2_(S^6+^O_4_)(OH)_14_7H_2_O
Locality: Sommerau District, Brixlegg - Rattenberg, Brixlegg - Schwaz area, Inn valley, North Tyrol, Tyrol, Austria
Source: Bob Jenkins
Description: Light blue massive coating with scattered isolated crystals, associated with dark blue azurite
Raman shift (cm-1)	intensity
168.742	0
171.635	1.09397
174.528	3.05905
177.42	2.48059
180.313	4.35374
183.206	3.22121
186.098	2.24628
188.991	4.35218
191.884	2.44597
194.776	5.90327
197.669	6.73158
200.562	5.25504
203.455	3.37531
206.347	1.5658
209.24	2.56573
212.133	0.993286
215.025	3.2048
217.918	2.46249
220.811	3.92624
223.703	1.75052
226.596	1.9875
229.489	2.35886
232.382	2.43207
235.274	5.98644
238.167	2.91938
241.06	4.89707
243.952	4.97181
246.845	1.64402
249.738	1.83272
252.631	4.35582
255.523	1.62797
258.416	3.41642
261.309	5.76806
264.201	1.93151
267.094	1.79783
269.987	0.78017
272.879	5.65454
275.772	1.60448
278.665	4.67189
281.558	4.32742
284.45	4.48705
287.343	3.98079
290.236	5.22837
293.128	3.39462
296.021	1.53722
298.914	0.622253
301.806	4.63076
304.699	4.33805
307.592	2.64036
310.485	3.29148
313.377	3.29949
316.27	4.04457
319.163	3.98675
322.055	5.87176
324.948	3.86217
327.841	1.87734
330.733	2.87671
333.626	2.70011
336.519	1.26407
339.411	3.32561
342.304	0.687904
345.197	1.07191
348.09	3.05386
350.982	4.09615
353.875	2.85135
356.768	2.13901
359.66	1.54063
362.553	1.65757
365.446	5.64165
368.339	3.62826
371.231	6.29197
374.124	5.51628
377.017	3.9577
379.909	1.53519
382.802	3.60051
385.695	5.04684
388.587	0.928637
391.48	4.77503
394.373	0.687082
397.265	0.499022
400.158	5.53997
403.051	1.32878
405.944	2.69986
408.836	3.04987
411.729	0.850483
414.622	0.890356
417.514	3.76879
420.407	4.16014
423.3	1.50336
426.192	4.73827
429.085	2.71373
431.978	6.64944
434.871	3.102
437.763	1.12085
440.656	2.51764
443.549	2.83313
446.441	2.89918
449.334	0.968145
452.227	4.2005
455.12	0.687759
458.012	3.39261
460.905	6.2174
463.798	3.09716
466.69	3.47586
469.583	2.5446
472.476	3.84289
475.368	5.9638
478.261	3.55085
481.154	3.95362
484.046	7.04938
486.939	6.54976
489.832	6.26701
492.725	7.11648
495.617	4.16839
498.51	4.38998
501.403	2.65633
504.295	6.3201
507.188	6.60105
510.081	4.34199
512.973	3.91068
515.866	3.36559
518.759	0.549659
521.652	1.10002
524.544	1.20037
527.437	3.70947
530.33	2.55815
533.222	2.85419
536.115	3.97297
539.008	3.19006
541.9	1.20969
544.793	4.02103
547.686	4.39391
550.579	5.63957
553.471	1.52861
556.364	1.2347
559.257	3.17377
562.149	4.97808
565.042	0.192285
567.935	4.36255
570.827	3.42723
573.72	2.39444
576.613	4.06792
579.506	3.73149
582.398	1.67244
585.291	0.743053
588.184	2.33559
591.076	7.69654
593.969	1.98783
596.862	3.66017
599.755	3.72123
602.647	4.82904
605.54	4.32006
608.433	3.19439
611.325	2.74918
614.218	5.44852
617.111	4.66779
620.003	2.22843
622.896	5.10775
625.789	3.191
628.682	3.03085
631.574	2.68694
634.467	3.00173
637.36	2.32696
640.252	1.11339
643.145	1.17718
646.038	3.95689
648.93	1.19768
651.823	4.58832
654.716	5.24277
657.609	3.26532
660.501	2.59269
663.394	6.00472
666.287	2.68127
669.179	3.99055
672.072	3.80317
674.965	2.45179
677.857	2.69086
680.75	3.03118
683.643	4.13833
686.535	2.08056
689.428	3.74339
692.321	0.464173
695.214	4.67776
698.106	1.80168
700.999	2.76282
703.892	1.33551
706.784	4.16298
709.677	0.926497
712.57	3.3042
715.462	2.3786
718.355	1.5181
721.248	0.981419
724.141	5.60641
727.033	0.533582
729.926	1.52362
732.819	0.043571
735.711	1.20722
738.604	5.16901
741.497	2.915
744.389	6.51738
747.282	3.39301
750.175	4.01089
753.068	2.65261
755.96	1.5352
758.853	2.73316
761.746	3.57483
764.638	4.20142
767.531	0.291782
770.424	2.57621
773.317	0.172503
776.209	3.39973
779.102	1.98611
781.995	3.78361
784.887	2.50489
787.78	0.432216
790.673	5.16167
793.565	0.430211
796.458	5.63728
799.351	4.11059
802.244	1.85032
805.136	5.25957
808.029	3.46998
810.922	4.66738
813.814	2.6575
816.707	5.45533
819.6	2.94627
822.492	0.943738
825.385	2.35712
828.278	1.29868
831.17	4.28487
834.063	1.73379
836.956	1.75448
839.849	7.21619
842.741	4.31466
845.634	4.86576
848.527	1.97422
851.419	4.66031
854.312	7.18475
857.205	7.9617
860.097	8.12853
862.99	5.73109
865.883	7.63039
868.776	8.82272
871.668	4.45674
874.561	8.3955
877.454	5.73084
880.346	2.67133
883.239	4.08888
886.132	6.59511
889.024	3.99969
891.917	0.977744
894.81	1.12683
897.703	5.59779
900.595	1.56327
903.488	3.65037
906.381	0.951966
909.273	0.251386
912.166	2.76087
915.059	1.51812
917.952	1.4818
920.844	1.92995
923.737	0.990778
926.63	5.11471
929.522	6.47407
932.415	3.57404
935.308	1.38129
938.2	2.38057
941.093	3.21533
943.986	3.36981
946.879	6.4232
949.771	4.746
952.664	3.17878
955.557	1.88457
958.449	4.07376
961.342	1.88427
964.235	1.73794
967.127	1.84971
970.02	5.9408
972.913	2.70653
975.806	3.549
978.698	3.72169
981.591	2.65373
984.484	3.12553
987.376	3.82971
990.269	2.90377
993.162	2.55324
996.054	3.75366
998.947	2.33719
1001.84	2.16311
1004.73	1.35346
1007.62	4.0939
1010.52	3.20054
1013.41	3.11947
1016.3	0.3943
1019.2	1.41758
1022.09	3.30495
1024.98	0.448688
1027.87	3.69644
1030.77	3.12011
1033.66	0.61892
1036.55	0.925012
1039.44	2.20519
1042.34	3.85657
1045.23	1.82166
1048.12	2.92639
1051.02	2.35652
1053.91	0.308835
1056.8	2.45444
1059.69	3.64952
1062.59	4.51055
1065.48	1.44213
1068.37	5.47839
1071.27	2.70246
1074.16	2.2468
1077.05	3.64961
1079.94	4.48149
1082.84	3.89825
1085.73	5.34347
1088.62	4.90074
1091.51	3.12195
1094.41	4.41469
1097.3	2.98103
1100.19	5.01353
1103.08	6.87824
1105.98	5.10449
1108.87	7.88427
1111.76	1.48946
1114.65	6.36133
1117.55	4.53857
1120.44	3.03033
1123.33	0.041091
1126.23	3.69993
1129.12	2.94536
1132.01	0.214515
1134.9	5.20617
1137.8	3.05392
1140.69	1.80881
1143.58	2.3041
1146.47	5.4176
1149.37	5.34046
1152.26	3.52115
1155.15	1.78473
1158.05	5.41245
1160.94	0.570934
1163.83	2.05404
1166.72	2.48998
1169.62	1.53691
1172.51	1.84068
1175.4	4.19984
1178.3	4.75599
1181.19	5.37032
1184.08	0.947328
1186.97	2.97436
1189.87	0.170707
1192.76	5.45988
1195.65	4.68068
1198.54	1.67219
1201.44	0.35933
1204.33	0.304585
1207.22	3.52779
1210.11	3.43844
1213.01	2.10288
1215.9	1.39822
1218.79	5.06517
1221.68	4.55902
1224.58	2.62993
1227.47	0.934494
1230.36	3.76294
1233.26	2.28967
1236.15	4.9835
1239.04	3.70455
1241.93	2.81195
1244.83	1.68176
1247.72	7.9572
1250.61	5.57435
1253.51	2.98704
1256.4	1.45283
1259.29	5.92303
1262.18	7.15918
1265.08	0.369037
1267.97	4.64838
1270.86	3.37798
1273.75	3.05582
1276.65	3.90975
1279.54	3.13234
1282.43	0.915672
1285.32	0
