Measurement: Raman, 780 nm, unoriented, Raman Data Processed
Mineral: Claringbullite
Rruff sample: R090016
Ideal chemistry: Cu^2+^_4_FCl(OH)_6_
Locality: Copper Queen Mine, Bisbee, Arizona
Source: William W. Pinch
Description: Blue green crystal plates and cleavages on cuprite with connellite, atacamite, clinoatacamite R090062. Note that this is the same sample used in the Burns et al (1995) structural study.
Raman shift (cm-1)	intensity
148.303	0
151.195	0.274299
154.088	0.1502
156.981	0.138325
159.873	0.899147
162.766	0.867735
165.659	0.442833
168.551	0.701868
171.444	0.084525
174.337	1.14871
177.23	0.619267
180.122	0.643921
183.015	0.685879
185.908	0.775215
188.8	0.08239
191.693	0.351665
194.586	0.472283
197.478	0.323056
200.371	0.023343
203.264	0.362346
206.156	0.15442
209.049	0.498171
211.942	0.035687
214.835	0.420474
217.727	0.34395
220.62	0.216419
223.513	0.576877
226.405	0.559939
229.298	0.446239
232.191	0.2017
235.083	0.45663
237.976	0.449447
240.869	0.349254
243.762	0.247902
246.654	0.647531
249.547	0.080452
252.44	0.592359
255.332	0.704326
258.225	0.097012
261.118	0.42322
264.01	0.067622
266.903	0.203959
269.796	0.710066
272.689	0.228456
275.581	0.483926
278.474	0.315199
281.367	0.575031
284.259	0.679374
287.152	0.976531
290.045	0.300319
292.938	0.455292
295.83	0.801276
298.723	0.235141
301.616	0.25616
304.508	0.015265
307.401	0.020156
310.294	0.379301
313.186	0.662519
316.079	0.537651
318.972	0.58601
321.865	0.769039
324.757	0.264189
327.65	0.093998
330.543	0.672807
333.435	0.484593
336.328	0.55556
339.221	0.379669
342.113	0.64046
345.006	0.270211
347.899	1.10654
350.791	0.64756
353.684	0.531501
356.577	0.669494
359.469	0.272015
362.362	0.466502
365.255	0.269484
368.148	0.368635
371.04	0.484256
373.933	0.666508
376.826	0.316338
379.718	0.262094
382.611	0.308756
385.504	0.806423
388.397	0.56765
391.289	0.33241
394.182	0.533405
397.075	0.379203
399.967	0.204551
402.86	0.432493
405.753	0.443798
408.645	0.19926
411.538	0.268163
414.431	0.005516
417.324	0.423689
420.216	0.127692
423.109	0.330922
426.002	0.223699
428.894	0.662912
431.787	0.539287
434.68	0.867142
437.572	0.326805
440.465	0.596571
443.358	0.802407
446.25	0.26062
449.143	0.617999
452.036	0.624098
454.929	0.820166
457.821	0.176242
460.714	0.379144
463.607	0.406102
466.5	0.075265
469.392	0.061906
472.285	0.006914
475.178	0.224566
478.07	0.061425
480.963	0.399784
483.856	0.330189
486.748	0.099382
489.641	0.517251
492.534	0.055218
495.426	0.103512
498.319	0.454636
501.212	0.55608
504.104	0.727044
506.997	0.529383
509.89	0.593586
512.783	0.680954
515.675	0.473823
518.568	0.401253
521.461	0.839997
524.354	0.435209
527.246	0.121161
530.139	0.337739
533.032	0.451824
535.924	0.553554
538.817	0.313457
541.71	0.429069
544.602	0.448078
547.495	0.516608
550.388	0.716571
553.28	0.102257
556.173	0.557264
559.066	0.125126
561.959	0.538171
564.851	0.203023
567.744	0.291694
570.637	0.29719
573.529	0.053478
576.422	0.085987
579.315	0.015894
582.207	0.589694
585.1	0.167622
587.993	0.537614
590.885	0.56744
593.778	0.123882
596.671	0.198244
599.564	0.553262
602.456	0.490187
605.349	0.489843
608.242	0.58172
611.134	0.700301
614.027	0.546816
616.92	0.118695
619.812	0.360472
622.705	0.461798
625.598	0.438171
628.491	0.839466
631.383	0.084775
634.276	0.390564
637.169	0.610664
640.061	0.760456
642.954	0.153333
645.847	0.636307
648.74	0.284626
651.632	0.692597
654.525	0.208959
657.418	0.156801
660.31	0.734066
663.203	0.293353
666.096	0.429424
668.988	0.801027
671.881	0.253385
674.774	0.689175
677.667	0.196329
680.559	0.575736
683.452	0.378754
686.345	0.719789
689.237	0.648212
692.13	0.37696
695.023	0.542978
697.915	0.564214
700.808	0.349806
703.701	0.571886
706.593	0.5778
709.486	1.07762
712.379	0.400052
715.272	0.346675
718.164	0.67086
721.057	0.144885
723.95	0.456222
726.842	0.2838
729.735	0.097494
732.628	0.424798
735.52	0.422159
738.413	0.056438
741.306	0.184881
744.199	0.246401
747.091	0.948854
749.984	0.140132
752.877	0.456382
755.769	0.153801
758.662	0.202558
761.555	0.196551
764.447	0.10234
767.34	0.892827
770.233	0.047573
773.126	0.427525
776.018	0.213476
778.911	0.286166
781.804	0.339016
784.696	0.734292
787.589	0.197976
790.482	0.404653
793.375	0.22333
796.267	0.137656
799.16	0.07913
802.053	0.661109
804.945	0.608108
807.838	0.570739
810.731	0.345718
813.623	0.572024
816.516	0.417944
819.409	0.812105
822.302	0.360279
825.194	0.480058
828.087	0.410629
830.98	0.560138
833.872	0.260106
836.765	0.322049
839.658	0.096552
842.55	0.342367
845.443	0.028247
848.336	0.4832
851.229	0.25869
854.121	0.440877
857.014	0.281713
859.907	0.41917
862.799	0.106842
865.692	0.249436
868.585	0.349216
871.477	0.510808
874.37	0.459355
877.263	0.44982
880.155	0.459056
883.048	0.199166
885.941	0.529136
888.834	0.416144
891.726	0.169121
894.619	0.271686
897.512	0.195818
900.404	0.352263
903.297	0.008305
906.19	0.072524
909.082	0.541292
911.975	0.084949
914.868	0.244193
917.761	0.420789
920.653	0.333333
923.546	0.518246
926.439	0.654102
929.331	0.327717
932.224	0.483687
935.117	0.076771
938.01	0.290098
940.902	0.216282
943.795	0.582243
946.688	0.144233
949.58	0.461428
952.473	0.17909
955.366	0.503659
958.258	0.093219
961.151	0.239747
964.044	0.904774
966.937	0.245616
969.829	0.384283
972.722	0.605755
975.615	0.951714
978.507	0.564499
981.4	0.559391
984.293	0.745255
987.185	0.11027
990.078	0.29883
992.971	0.339569
995.864	0.633195
998.756	0.737302
1001.65	0.534781
1004.54	0.468592
1007.43	0.399219
1010.33	0.556746
1013.22	0.283403
1016.11	0.550152
1019	0.62796
1021.9	0.397076
1024.79	0.422187
1027.68	0.520002
1030.58	0.244369
1033.47	0.221881
1036.36	0.982352
1039.25	0.34203
1042.15	0.757604
1045.04	0.532255
1047.93	1.08883
1050.83	0.363227
1053.72	0.849597
1056.61	0.373744
1059.5	0.479585
1062.4	0.454677
1065.29	0.253953
1068.18	0.146811
1071.07	0.31309
1073.97	0.50104
1076.86	0.203277
1079.75	0.151428
1082.64	0.367395
1085.54	0.228374
1088.43	0.321354
1091.32	0.640815
1094.21	0.526626
1097.11	0.235301
1100	0.441935
1102.89	0.085263
1105.79	0.512183
1108.68	0.248907
1111.57	0.076778
1114.46	0.02418
1117.36	0.370091
1120.25	0.023251
1123.14	0.027889
1126.04	0.128171
1128.93	0.222756
1131.82	0.586841
1134.71	0.754883
1137.61	0.372448
1140.5	0.179515
1143.39	0.112009
1146.28	0.395715
1149.18	0.233267
1152.07	0.097901
1154.96	0.044561
1157.86	0.138767
1160.75	0.141002
1163.64	0.600506
1166.53	0.506263
1169.42	0.438622
1172.32	0.185899
1175.21	0.442044
1178.1	0.423511
1181	0.299205
1183.89	0.442453
1186.78	0.799865
1189.67	0.037898
1192.57	0.181449
1195.46	0.266721
1198.35	0.44849
1201.24	0.309839
1204.14	0.371833
1207.03	0.660673
1209.92	0.466387
1212.82	0.449466
1215.71	0.601021
1218.6	0.602622
1221.49	0.791349
1224.39	0.951281
1227.28	0.062636
1230.17	0.027868
1233.07	0.392745
1235.96	0.490533
1238.85	0.540375
1241.74	0.497818
1244.64	0.322031
1247.53	0.294073
1250.42	0.263184
1253.31	0.513163
1256.21	0.316413
1259.1	0.428807
1261.99	0.207358
1264.88	0.436098
1267.78	1.05768
1270.67	0.17715
1273.56	0.796282
1276.45	0.439993
1279.35	0.526915
1282.24	0.436476
1285.13	0.001873
