Measurement: Raman, 532 nm, unoriented, Raman Data Processed
Mineral: Cleusonite
Rruff sample: R061019
Ideal chemistry: Pb^2+^(U^4+^,U^6+^)Fe^2+^_2_(Ti^4+^,Fe^2+^,Fe^3+^)_18_(O,OH)_38_
Locality: Bella Tola, Alpe Roua, St-Luc, Val d'Annivers, Wallis
Source: Michael Scott
Description: Metamict black semimetallic prismatic, associated with quartz
Raman shift (cm-1)	intensity
142.736	0
145.629	43.2014
148.522	86.9023
151.414	15.3523
154.307	17.4561
157.2	80.1482
160.092	106.847
162.985	127.462
165.878	95.9778
168.77	117.763
171.663	97.7175
174.556	47.7688
177.448	14.0942
180.341	104.362
183.234	74.7148
186.127	66.7866
189.019	61.375
191.912	44.8276
194.805	42.9665
197.697	2.35938
200.59	4.02515
203.483	35.9985
206.375	53.9004
209.268	78.2146
212.161	63.8735
215.054	7.54712
217.946	52.813
220.839	76.2893
223.732	10.5779
226.624	3.01318
229.517	50.8648
232.41	11.0696
235.303	32.8481
238.195	44.604
241.088	7.27246
243.981	10.0852
246.873	31.9568
249.766	86.8303
252.659	11.3733
255.551	22.29
258.444	5.53809
261.337	67.1277
264.229	69.4456
267.122	59.2473
270.015	60.3687
272.908	117.72
275.8	33.9788
278.693	91.5503
281.586	70.7825
284.478	39.5325
287.371	15.7878
290.264	74.0513
293.156	10.4607
296.049	0.574951
298.942	19.4084
301.834	44.7095
304.727	78.6145
307.62	80.3032
310.513	4.62988
313.405	93.8264
316.298	37.1826
319.191	5.03516
322.083	22.3716
324.976	8.30859
327.869	9.95605
330.762	65.1592
333.654	41.9746
336.547	21.9021
339.44	52.948
342.332	45.2576
345.225	51.8499
348.118	34.0073
351.01	79.1682
353.903	64.3503
356.796	25.3218
359.688	47.4492
362.581	11.0877
365.474	11.1726
368.366	66.6624
371.259	3.14429
374.152	21.8259
377.045	56.5579
379.937	54.6379
382.83	43.9717
385.723	80.8232
388.615	33.2685
391.508	57.7734
394.401	87.8398
397.293	14.4998
400.186	44.8215
403.079	54.3118
405.972	29.333
408.864	22.2412
411.757	35.2278
414.65	120.712
417.542	42.4773
420.435	27.9785
423.328	26.562
426.221	29.8235
429.113	31.2778
432.006	34.0056
434.899	72.6626
437.791	1.34936
440.684	92.3904
443.577	31.9563
446.469	56.0015
449.362	23.2976
452.255	42.4014
455.147	10.5261
458.04	53.1626
460.933	42.7815
463.826	12.4048
466.718	51.0049
469.611	53.7856
472.504	46.5715
475.396	23.3389
478.289	11.919
481.182	24.1421
484.074	0.805664
486.967	27.7856
489.86	33.6323
492.752	14.8071
495.645	29.9714
498.538	46.2053
501.431	14.9185
504.323	10.3555
507.216	1.70654
510.109	21.7859
513.001	81.5266
515.894	46.5178
518.787	79.6834
521.679	129.324
524.572	54.5327
527.465	104.621
530.358	49.218
533.25	31.3023
536.143	50.0002
539.036	61.8171
541.928	59.4629
544.821	101.112
547.714	100.19
550.606	115.509
553.499	98.4673
556.392	97.7498
559.284	126.338
562.177	102.373
565.07	111.058
567.963	107.107
570.855	66.0986
573.748	78.6526
576.641	114.791
579.533	68.1728
582.426	105.591
585.319	79.7751
588.212	79.3479
591.104	99.6765
593.997	95.2786
596.89	45.219
599.782	124.682
602.675	93.6199
605.568	94.238
608.46	121.653
611.353	104.732
614.246	132.104
617.139	96.7383
620.031	118.419
622.924	126.022
625.817	144.466
628.709	119.152
631.602	87.708
634.495	86.043
637.387	105.508
640.28	69.3823
643.173	85.21
646.066	8.16553
648.958	20.1355
651.851	20.7578
654.744	24.929
657.636	16.1658
660.529	39.3237
663.422	1.18994
666.314	2.7041
669.207	12.1011
672.1	1.07812
674.992	43.6902
677.885	0.420898
680.778	16.7331
683.67	20.8882
686.563	14.9158
689.456	54.9775
692.349	19.5889
695.241	11.9714
698.134	84.7307
701.027	57.1885
703.919	24.4414
706.812	24.2051
709.705	47.7683
712.597	50.2888
715.49	37.7334
718.383	61.4485
721.276	66.5884
724.168	82.3359
727.061	96.9617
729.954	106.987
732.846	70.2871
735.739	71.9392
738.632	60.6692
741.524	58
744.417	73.144
747.31	106.08
750.203	96.9329
753.095	92.4512
755.988	65.6269
758.881	100.883
761.773	70.2939
764.666	32.4622
767.559	83.1411
770.452	73.8494
773.344	70.1995
776.237	59.8909
779.13	109.178
782.022	69.2424
784.915	129.935
787.808	130.183
790.7	107.585
793.593	127.39
796.486	126.394
799.378	145.125
802.271	131.743
805.164	132.172
808.057	111.844
810.949	121.047
813.842	147.217
816.735	98.6666
819.627	139.477
822.52	143.377
825.413	99.715
828.305	104.639
831.198	99.2704
834.091	134.924
836.984	84.8624
839.876	97.2539
842.769	74.5
845.662	51.5338
848.554	35.6575
851.447	45.4681
854.34	45.2717
857.232	37.7404
860.125	1.82251
863.018	5.42188
865.91	39.7389
868.803	3.5365
871.696	9.13562
874.589	1.23584
877.481	8.20288
880.374	47.1956
883.267	29.3831
886.159	2.11511
889.052	39.0361
891.945	25.8055
894.837	35.4479
897.73	38.9346
900.623	3.354
903.516	33.6844
906.408	24.7051
909.301	32.0796
912.194	11.3558
915.086	20.1827
917.979	14.65
920.872	39.9568
923.764	62.8341
926.657	39.811
929.55	1.51294
932.442	38.7551
935.335	37.7211
938.228	68.0753
941.121	27.3668
944.013	44.221
946.906	43.1846
949.799	52.6934
952.691	74.3989
955.584	20.1409
958.477	71.5278
961.37	39.208
964.262	37.2313
967.155	38.8342
970.048	50.3291
972.94	61.2871
975.833	34.6805
978.726	24.8472
981.618	39.4841
984.511	11.4082
987.404	14.8047
990.296	49.2839
993.189	5.45093
996.082	12.3626
998.975	45.2032
1001.87	33.5565
1004.76	9.96008
1007.65	5.10254
1010.54	32.5997
1013.44	31.2483
1016.33	19.8646
1019.22	40.8174
1022.12	42.5604
1025.01	18.8636
1027.9	73.7952
1030.79	63.0061
1033.69	57.0172
1036.58	71.2289
1039.47	78.1702
1042.37	14.8242
1045.26	36.6581
1048.15	27.9043
1051.04	40.0668
1053.94	12.2644
1056.83	56.12
1059.72	45.7531
1062.61	51.6519
1065.51	35.0979
1068.4	40.1151
1071.29	7.88745
1074.18	50.99
1077.08	30.8718
1079.97	25.593
1082.86	52.2323
1085.76	23.526
1088.65	46.5381
1091.54	39.2784
1094.43	36.7339
1097.33	31.235
1100.22	28.0774
1103.11	22.3262
1106	33.9578
1108.9	38.9639
1111.79	24.3633
1114.68	14.9187
1117.58	9.10718
1120.47	64.9683
1123.36	38.307
1126.25	20.5598
1129.15	36.2629
1132.04	6.09192
1134.93	44.2692
1137.82	26.7113
1140.72	51.4132
1143.61	41.4139
1146.5	6.21924
1149.39	31.4968
1152.29	27.9696
1155.18	25.219
1158.07	31.9038
1160.97	47.2065
1163.86	11.6074
1166.75	24.2358
1169.64	2.40625
1172.54	35.9417
1175.43	33.9268
1178.32	8.65454
1181.21	42.5241
1184.11	37.0903
1187	27.2749
1189.89	29.5189
1192.79	54.5438
1195.68	13.3807
1198.57	28.6865
1201.46	14.5283
1204.36	36.9955
1207.25	26.7949
1210.14	15.5858
1213.03	51.4247
1215.93	19.7311
1218.82	36.669
1221.71	58.8881
1224.61	12.0883
1227.5	20.3229
1230.39	37.8758
1233.28	52.8037
1236.18	17.2594
1239.07	44.0301
1241.96	79.4076
1244.85	69.6715
1247.75	40.9418
1250.64	82.113
1253.53	57.6117
1256.42	43.8552
1259.32	39.1125
1262.21	40.4067
1265.1	31.0343
1267.99	24.4286
1270.89	64.3525
1273.78	34.0018
1276.67	72.7666
1279.57	26.2212
1282.46	6.91626
1285.35	13.1454
1288.24	0.614258
