Measurement: Raman, 785 nm, unoriented, Raman Data Processed
Mineral: Cleusonite
Rruff sample: R061019
Ideal chemistry: Pb^2+^(U^4+^,U^6+^)Fe^2+^_2_(Ti^4+^,Fe^2+^,Fe^3+^)_18_(O,OH)_38_
Locality: Bella Tola, Alpe Roua, St-Luc, Val d'Annivers, Wallis
Source: Michael Scott
Description: Metamict black semimetallic prismatic, associated with quartz
Raman shift (cm-1)	intensity
146.116	0
149.008	237.968
151.901	184.175
154.794	79.2981
157.686	8.84448
160.579	60.9065
163.472	236.329
166.365	300.932
169.257	303.822
172.15	271.594
175.043	213.726
177.935	107.956
180.828	87.4702
183.721	176.282
186.613	90.4336
189.506	110.087
192.399	35.093
195.292	81.9934
198.184	76.4324
201.077	79.5266
203.97	41.5906
206.862	45.6812
209.755	39.3301
212.648	12.5335
215.541	20.148
218.433	2.26025
221.326	44.4148
224.219	21.1272
227.111	17.2678
230.004	17.9138
232.897	30.074
235.79	18.0896
238.682	41.9937
241.575	33.9939
244.468	25.5586
247.36	17.0422
250.253	61.6174
253.146	7.93677
256.038	30.5359
258.931	24.5811
261.824	29.7581
264.716	40.6501
267.609	45.2605
270.502	18.1904
273.395	6.073
276.287	3.30103
279.18	32.5933
282.073	21.7434
284.965	16.9385
287.858	1.15991
290.751	26.2114
293.644	2.64282
296.536	6.61523
299.429	49.033
302.322	57.3677
305.214	21.3843
308.107	52.3457
311	41.8987
313.892	67.885
316.785	12.094
319.678	10.0828
322.57	55.7766
325.463	29.2676
328.356	69.1148
331.249	56.5647
334.141	31.0129
337.034	32.9924
339.927	18.5581
342.819	21.9622
345.712	42.5081
348.605	84.4346
351.498	27.9077
354.39	50.9617
357.283	38.2124
360.176	5.55884
363.068	0.324463
365.961	39.0127
368.854	26.1221
371.746	62.3369
374.639	53.002
377.532	47.7551
380.425	54.9297
383.317	60.968
386.21	25.1196
389.103	7.60254
391.995	26.137
394.888	47.3904
397.781	62.9653
400.673	19.1296
403.566	3.43994
406.459	16.457
409.351	2.48682
412.244	22.9795
415.137	37.6536
418.03	38.9966
420.922	26.0007
423.815	66.4316
426.708	14.1511
429.6	33.9524
432.493	32.21
435.386	2.8667
438.279	51.4168
441.171	31.7129
444.064	48.8313
446.957	48.0742
449.849	8.31226
452.742	32.5354
455.635	36.3257
458.527	19.6196
461.42	3.34766
464.313	38.6438
467.205	33.8816
470.098	21.8442
472.991	6.28467
475.884	18.5454
478.776	46.6716
481.669	1.66821
484.562	34.1362
487.454	0.196533
490.347	66.6963
493.24	0.713379
496.132	23.6877
499.025	32.7703
501.918	8.69849
504.811	0.508545
507.703	36.532
510.596	39.115
513.489	43.9397
516.381	6.05078
519.274	59.7983
522.167	29.1929
525.059	52.7725
527.952	31.0903
530.845	38.2419
533.738	6.19507
536.63	13.7302
539.523	32.9712
542.416	37.1609
545.308	40.3984
548.201	61.3921
551.094	38.3218
553.986	17.9463
556.879	37.346
559.772	49.7996
562.665	33.7542
565.557	24.6118
568.45	4.53638
571.343	6.67456
574.235	6.17896
577.128	28.9368
580.021	45.2915
582.914	43.3953
585.806	25.158
588.699	47.6399
591.592	23.1504
594.484	21.7666
597.377	48.6614
600.27	15.052
603.163	22.8254
606.055	58.6357
608.948	72.5466
611.841	57.5645
614.733	41.967
617.626	52.4602
620.519	45.683
623.411	42.7846
626.304	21.5
629.197	28.1642
632.09	37.2528
634.982	44.7842
637.875	23.6523
640.768	27.5037
643.66	35.5015
646.553	18.8893
649.446	52.2468
652.338	13.1986
655.231	19.6925
658.124	30.8571
661.016	27.1702
663.909	1.59753
666.802	38.2479
669.695	10.6471
672.587	49.6494
675.48	28.3061
678.373	34.1891
681.265	33.8018
684.158	17.0936
687.051	17.4049
689.943	40.0892
692.836	65.3153
695.729	35.0126
698.622	22.6824
701.514	39.387
704.407	30.8716
707.3	32.2111
710.192	27.3224
713.085	11.506
715.978	35.7584
718.87	60.2212
721.763	41.663
724.656	76.3398
727.549	56.733
730.441	48.905
733.334	29.11
736.227	75.9708
739.119	68.861
742.012	61.0065
744.905	24.546
747.798	54.8053
750.69	57.0723
753.583	57.9744
756.476	61.5388
759.368	54.7471
762.261	16.7661
765.154	47.0999
768.046	12.4155
770.939	38.7175
773.832	76.6771
776.725	58.1993
779.617	72.917
782.51	53.4352
785.403	50.4867
788.295	59.1747
791.188	58.6664
794.081	54.5114
796.973	35.2659
799.866	5.21985
802.759	12.6732
805.652	16.6575
808.544	47.1123
811.437	29.3914
814.33	59.5057
817.222	20.9823
820.115	45.6138
823.008	38.2242
825.9	16.2653
828.793	9.51648
831.686	28.0798
834.578	17.3513
837.471	12.0846
840.364	9.56775
843.257	1.53027
846.149	27.3258
849.042	5.94641
851.935	5.5719
854.827	11.4281
857.72	11.355
860.613	13.6888
863.505	12.8394
866.398	4.96631
869.291	14.9916
872.184	13.4818
875.076	12.9412
877.969	22.6953
880.862	24.4193
883.754	6.11682
886.647	9.13672
889.54	34.6509
892.433	2.63733
895.325	19.384
898.218	1.82513
901.111	9.73859
904.003	36.008
906.896	45.7232
909.789	35.8221
912.682	44.9865
915.574	41.4396
918.467	35.0243
921.36	14.3522
924.252	57.3652
927.145	15.4341
930.038	38.6583
932.93	46.7715
935.823	56.5966
938.716	70.7585
941.609	21.5534
944.501	36.8425
947.394	20.7516
950.287	45.6372
953.179	49.4755
956.072	14.5575
958.965	39.0563
961.857	33.7316
964.75	35.6935
967.643	20.0557
970.535	2.44812
973.428	59.0812
976.321	51.1161
979.214	21.2099
982.106	34.9053
984.999	47.1382
987.892	6.79291
990.784	4.09638
993.677	2.37836
996.57	28.0287
999.462	53.7856
1002.36	50.0423
1005.25	21.0784
1008.14	32.6681
1011.03	66.6037
1013.93	48.0025
1016.82	46.6713
1019.71	21.0637
1022.6	13.7929
1025.5	10.6604
1028.39	48.1243
1031.28	47.2065
1034.17	26.1025
1037.07	28.147
1039.96	9.84699
1042.85	28.7242
1045.75	52.608
1048.64	56.0962
1051.53	10.297
1054.42	27.3867
1057.32	12.2989
1060.21	15.777
1063.1	33.2957
1065.99	3.50977
1068.89	10.3239
1071.78	19.8865
1074.67	23.6389
1077.57	16.6587
1080.46	32.7951
1083.35	21.1331
1086.24	2.46265
1089.14	61.4188
1092.03	25.796
1094.92	4.35211
1097.81	34.7488
1100.71	16.5059
1103.6	26.7999
1106.49	19.6606
1109.38	8.13477
1112.28	17.4838
1115.17	12.9656
1118.06	7.49225
1120.96	27.7452
1123.85	13.606
1126.74	59.4188
1129.63	22.3463
1132.53	19.1146
1135.42	29.9551
1138.31	16.9749
1141.2	18.1203
1144.1	31.2394
1146.99	10.4217
1149.88	31.4794
1152.78	44.2773
1155.67	3.74976
1158.56	45.0378
1161.45	39.0465
1164.35	12.7675
1167.24	18.1829
1170.13	37.9633
1173.03	14.7215
1175.92	28.1525
1178.81	47.101
1181.7	21.6229
1184.6	30.1736
1187.49	40.1084
1190.38	27.7466
1193.27	37.0982
1196.17	55.0734
1199.06	14.4278
1201.95	22.0834
1204.84	4.47174
1207.74	20.5834
1210.63	41.7869
1213.52	27.7916
1216.41	74.5374
1219.31	24.6523
1222.2	25.5085
1225.09	35.1636
1227.99	36.1907
1230.88	53.0735
1233.77	29.8932
1236.66	4.09534
1239.56	11.6454
1242.45	57.6
1245.34	30.759
1248.23	65.7464
1251.13	26.1033
1254.02	15.6742
1256.91	9.41803
