Measurement: Raman, 780 nm, unoriented, Raman Data Processed
Mineral: Clinoclase
Rruff sample: R050659
Ideal chemistry: Cu^2+^_3_As^5+^O_4_(OH)_3_
Locality: Carissa mine, Tintic District, Utah, USA
Source: University of Arizona Mineral Museum
Description: Dark blue prismatic single crystal associated with cornwallite
Raman shift (cm-1)	intensity
102.15	0
105.525	1.32514
108.9	6.00762
112.274	1.85775
115.649	2.46439
119.024	3.55234
122.399	4.75533
125.773	6.30414
129.148	4.02519
132.523	3.09678
135.898	2.69759
139.273	6.04425
142.648	3.3523
146.022	0.080521
149.397	0.690302
152.772	3.41499
156.147	1.71618
159.522	1.15935
162.897	3.30209
166.271	1.13771
169.646	2.0425
173.021	2.27084
176.396	1.023
179.771	2.75311
183.145	2.40086
186.52	2.27173
189.895	3.19241
193.27	0.076162
196.645	0.99382
200.019	2.18305
203.394	3.93832
206.769	3.14235
210.144	3.82947
213.519	2.69953
216.893	4.58192
220.268	1.84225
223.643	1.02124
227.018	4.31789
230.393	3.24917
233.768	2.88459
237.142	4.60333
240.517	1.14612
243.892	4.00759
247.267	3.63806
250.642	1.51842
254.017	1.68385
257.391	3.63422
260.766	4.6437
264.141	1.098
267.516	1.47741
270.891	3.24036
274.265	4.77827
277.64	1.28201
281.015	2.28858
284.39	1.22751
287.765	2.28058
291.139	1.05619
294.514	1.42981
297.889	1.86387
301.264	1.2558
304.639	1.81172
308.014	4.97495
311.388	3.27944
314.763	2.17157
318.138	3.14309
321.513	1.84039
324.888	0.462492
328.262	0.543026
331.637	4.38746
335.012	1.08401
338.387	0.190022
341.762	4.89962
345.137	2.22734
348.511	3.26367
351.886	2.21967
355.261	3.00679
358.636	0.495564
362.01	2.41786
365.385	3.46353
368.76	1.79606
372.135	3.33218
375.51	1.59702
378.885	1.70788
382.259	1.77764
385.634	0.918446
389.009	5.24362
392.384	2.81918
395.759	2.47174
399.134	4.19208
402.508	3.01534
405.883	2.60292
409.258	3.44257
412.633	5.91907
416.008	0.961654
419.382	1.46257
422.757	1.99214
426.132	0.690967
429.507	3.16529
432.882	1.85779
436.257	0.056955
439.631	1.15509
443.006	2.70189
446.381	3.88297
449.756	1.73294
453.13	3.32651
456.505	3.31021
459.88	1.59302
463.255	2.47012
466.63	1.15993
470.005	0.045332
473.379	2.35591
476.754	0.452634
480.129	1.01101
483.504	0.897758
486.879	0.8001
490.253	0.172607
493.628	3.51391
497.003	1.17657
500.378	1.99428
503.753	1.65181
507.128	2.65499
510.502	2.86109
513.877	0.908712
517.252	1.73028
520.627	2.47998
524.002	0.686166
527.376	3.45041
530.751	2.07369
534.126	1.39397
537.501	1.09104
540.876	1.51218
544.25	2.29399
547.625	0.792842
551	0.373882
554.375	4.17287
557.75	2.03548
561.125	4.20646
564.499	2.72804
567.874	0.609748
571.249	3.10249
574.624	5.01796
577.999	3.72481
581.374	0.500045
584.748	1.69148
588.123	3.52985
591.498	2.47264
594.873	1.27163
598.248	1.03561
601.622	3.16272
604.997	3.93495
608.372	1.91679
611.747	0.658567
615.122	2.53345
618.496	3.35951
621.871	3.21509
625.246	0.266099
628.621	2.83838
631.996	2.57204
635.37	0.848958
638.745	2.05678
642.12	0.632902
645.495	3.04304
648.87	0.828876
652.245	2.18526
655.619	5.39471
658.994	1.5125
662.369	2.2911
665.744	2.87505
669.119	3.2092
672.494	1.10517
675.868	3.45362
679.243	0.830569
682.618	1.406
685.993	0.053387
689.368	2.80872
692.742	0.152918
696.117	1.98118
699.492	2.47541
702.867	2.60581
706.242	1.2767
709.616	0.046585
712.991	1.34886
716.366	1.2281
719.741	3.17814
723.116	2.76689
726.49	1.86115
729.865	0.826484
733.24	1.91386
736.615	3.02472
739.99	0.910413
743.365	1.89593
746.739	3.06954
750.114	1.3017
753.489	2.68061
756.864	0.852939
760.239	1.36802
763.614	0.29647
766.988	1.41613
770.363	0.356873
773.738	5.01016
777.113	1.98158
780.487	4.28052
783.862	5.42004
787.237	2.18024
790.612	1.53781
793.987	0.012665
797.362	3.18907
800.736	2.04084
804.111	2.49539
807.486	2.68573
810.861	3.82984
814.236	2.65995
817.611	1.02445
820.985	2.2552
824.36	0.739609
827.735	2.77672
831.11	2.58273
834.485	5.01576
837.859	3.41136
841.234	3.45685
844.609	1.23701
847.984	3.98596
851.359	2.31619
854.734	2.0421
858.108	5.28205
861.483	3.99966
864.858	1.98883
868.233	3.3542
871.607	1.66534
874.982	2.92305
878.357	4.08467
881.732	1.95074
885.107	3.78623
888.482	1.15879
891.856	2.71546
895.231	1.80656
898.606	1.23118
901.981	1.71271
905.356	2.13537
908.731	1.06141
912.105	0.59679
915.48	3.93322
918.855	3.92092
922.23	2.02112
925.605	2.36238
928.979	2.70229
932.354	2.28878
935.729	3.76485
939.104	1.18378
942.479	0.369223
945.854	0.207452
949.228	1.91894
952.603	3.37109
955.978	0.794072
959.353	0.494214
962.727	3.32658
966.102	1.1909
969.477	1.58342
972.852	1.45529
976.227	4.43368
979.602	2.44863
982.976	0.558157
986.351	3.26487
989.726	2.92613
993.101	0.192166
996.476	2.29667
999.851	2.03078
1003.23	3.54095
1006.6	0.463318
1009.98	4.22503
1013.35	0.172645
1016.73	3.52626
1020.1	3.34664
1023.47	3.8116
1026.85	2.91629
1030.22	3.93208
1033.6	2.3335
1036.97	1.0657
1040.35	4.25636
1043.72	2.53619
1047.1	2.50183
1050.47	3.11771
1053.85	2.51455
1057.22	3.60058
1060.6	0.931571
1063.97	3.76613
1067.35	1.37181
1070.72	2.18699
1074.1	4.81146
1077.47	2.60489
1080.85	2.84898
1084.22	2.15287
1087.6	1.38983
1090.97	2.88998
1094.35	1.15483
1097.72	2.99162
1101.1	0.581894
1104.47	3.66353
1107.84	0.95573
1111.22	1.22401
1114.59	2.87607
1117.97	0.883776
1121.34	1.80727
1124.72	3.25374
1128.09	2.49439
1131.47	1.55814
1134.84	3.27087
1138.22	0.124805
1141.59	2.50766
1144.97	0.274695
1148.34	2.77054
1151.72	1.40808
1155.09	0.920676
1158.47	0.842767
1161.84	2.35274
1165.22	0.069021
1168.59	1.73922
1171.97	1.03127
1175.34	2.73386
1178.72	3.39547
1182.09	1.58715
1185.46	1.15358
1188.84	1.36634
1192.21	3.42503
1195.59	4.0505
1198.96	0.855302
1202.34	3.51299
1205.71	1.33801
1209.09	2.21314
1212.46	3.31725
1215.84	0.613421
1219.21	2.09366
1222.59	1.99745
1225.96	1.01012
1229.34	1.54953
1232.71	1.76335
1236.09	1.18123
1239.46	2.18001
1242.84	4.66626
1246.21	1.40779
1249.59	0.270552
1252.96	2.96043
1256.34	3.77598
1259.71	1.7962
1263.09	2.87113
1266.46	3.31467
1269.84	1.55811
1273.21	3.08738
1276.59	3.0856
1279.96	2.96613
1283.34	0.799803
