Measurement: Raman, 780 nm, unoriented, Raman Data Processed
Mineral: Clinoatacamite
Rruff sample: R090062
Ideal chemistry: Cu^2+^_2_Cl(OH)_3_
Locality: Copper Queen Mine, Bisbee, Arizona
Source: William W. Pinch
Description: Dark green blocky crystals associated with green acicular atacamite, blue claringbullite, R090016, and cuprite. Some crystals are tabular, and these are untwinned.
Measured chemistry: Cu_2.01_Cl_0.98_(OH)_3_
Raman shift (cm-1)	intensity
199.082	0
201.974	0.016377
204.867	3.71631
207.76	3.56681
210.652	2.1542
213.545	4.0951
216.438	1.43996
219.331	3.6918
222.223	3.15603
225.116	2.40361
228.009	2.62595
230.901	5.1021
233.794	5.17374
236.687	3.44842
239.579	4.4167
242.472	1.60376
245.365	2.72644
248.257	2.40508
251.15	0.907837
254.043	2.32028
256.936	1.50249
259.828	1.6229
262.721	2.13802
265.614	2.97503
268.506	2.43235
271.399	4.64937
274.292	0.084763
277.185	1.38063
280.077	2.75494
282.97	1.07997
285.863	2.63253
288.755	1.86812
291.648	2.19831
294.541	4.10395
297.433	3.06214
300.326	5.79358
303.219	3.15081
306.111	1.08387
309.004	2.13175
311.897	3.90261
314.79	1.40262
317.682	0.9756
320.575	0.521954
323.468	5.38576
326.36	2.53467
329.253	3.39275
332.146	5.20575
335.038	0.675565
337.931	4.14076
340.824	2.50689
343.717	4.73728
346.609	5.08323
349.502	3.66423
352.395	3.01213
355.287	6.7029
358.18	1.8254
361.073	5.54692
363.965	3.68943
366.858	0.108123
369.751	2.40292
372.644	4.0134
375.536	1.55257
378.429	2.97434
381.322	1.71912
384.214	4.59011
387.107	3.1849
390	2.19349
392.892	6.04582
395.785	2.14292
398.678	0.646614
401.57	5.31411
404.463	4.37943
407.356	3.27276
410.249	4.46915
413.141	3.21514
416.034	2.99079
418.927	7.27649
421.819	2.13886
424.712	1.309
427.605	3.90943
430.498	4.12138
433.39	0.481861
436.283	3.67419
439.176	4.11831
442.068	2.88649
444.961	0.786885
447.854	4.25896
450.746	2.87845
453.639	4.994
456.532	3.78153
459.425	0.726284
462.317	4.44494
465.21	1.01
468.103	5.9444
470.995	3.64792
473.888	5.92473
476.781	1.44463
479.673	5.50298
482.566	2.80574
485.459	1.69883
488.351	4.4575
491.244	1.24236
494.137	6.53909
497.029	4.54664
499.922	1.72082
502.815	1.98767
505.708	4.52153
508.6	1.65523
511.493	6.03825
514.386	3.72025
517.278	3.20702
520.171	3.10799
523.064	0.859718
525.957	1.79086
528.849	3.51581
531.742	3.63298
534.635	4.32367
537.527	3.75348
540.42	1.88293
543.313	2.41206
546.205	0.348219
549.098	3.6731
551.991	3.11491
554.884	1.02697
557.776	2.80621
560.669	0.349513
563.562	0.633438
566.454	1.31544
569.347	3.24361
572.24	0.991709
575.132	2.12761
578.025	1.17569
580.918	2.25087
583.811	1.47926
586.703	0.950073
589.596	4.74405
592.489	4.90497
595.381	2.22374
598.274	4.56227
601.167	3.99985
604.059	5.22019
606.952	5.13891
609.845	3.23306
612.737	1.09949
615.63	5.9102
618.523	4.26785
621.416	1.2309
624.308	5.0246
627.201	3.50307
630.094	0.998534
632.986	2.22954
635.879	3.74461
638.772	2.10403
641.664	0.72729
644.557	2.239
647.45	1.78809
650.342	4.04703
653.235	4.38394
656.128	2.84689
659.021	3.71925
661.913	0.720613
664.806	1.72106
667.699	4.29272
670.591	3.45195
673.484	1.88098
676.377	2.89076
679.269	3.63316
682.162	3.57827
685.055	1.7459
687.948	3.6363
690.84	5.96583
693.733	0.047597
696.626	4.95303
699.518	4.27777
702.411	3.87252
705.304	2.07829
708.197	3.16347
711.089	0.137087
713.982	1.80763
716.875	5.12662
719.767	2.05326
722.66	3.98726
725.553	0.742757
728.445	2.80368
731.338	3.65244
734.231	3.11947
737.124	0.853982
740.016	2.37442
742.909	3.72446
745.802	4.18911
748.694	4.78811
751.587	1.41848
754.48	4.16979
757.372	3.6475
760.265	4.37478
763.158	4.26382
766.051	4.33341
768.943	1.52236
771.836	4.19634
774.729	0.037755
777.621	1.92688
780.514	0.902963
783.407	0.22806
786.299	2.61634
789.192	1.51159
792.085	1.33457
794.977	2.4063
797.87	3.8537
800.763	2.03583
803.655	4.17412
806.548	0.169684
809.441	1.66356
812.334	1.36794
815.226	2.38948
818.119	5.0318
821.012	2.83363
823.904	4.88138
826.797	0.314937
829.69	4.80233
832.582	3.71487
835.475	5.5683
838.368	2.07701
841.261	3.30983
844.153	2.24866
847.046	3.52704
849.939	4.65788
852.831	1.94088
855.724	2.30425
858.617	1.75032
861.51	1.29776
864.402	5.5727
867.295	3.16072
870.188	1.35904
873.08	5.7207
875.973	2.09093
878.866	1.90156
881.758	1.91763
884.651	3.81131
887.544	2.76343
890.437	0.285442
893.329	1.70352
896.222	0.186265
899.115	5.87901
902.007	0.660721
904.9	2.05524
907.793	3.36132
910.685	2.16866
913.578	3.03597
916.471	1.70772
919.364	5.11867
922.256	2.17939
925.149	0.624294
928.042	3.21967
930.934	2.70577
933.827	2.29961
936.72	5.58423
939.612	3.28339
942.505	3.45517
945.398	2.44757
948.29	2.48492
951.183	1.84174
954.076	2.08983
956.968	2.30622
959.861	3.29272
962.754	2.79306
965.647	4.5414
968.539	2.31304
971.432	0.768797
974.325	2.40249
977.217	3.13554
980.11	3.35333
983.003	3.90773
985.895	5.04201
988.788	4.00412
991.681	6.8087
994.574	1.52292
997.466	5.65402
1000.36	2.65287
1003.25	3.86384
1006.14	1.466
1009.04	1.11365
1011.93	2.80685
1014.82	3.38743
1017.72	2.71118
1020.61	2.24111
1023.5	3.5031
1026.39	1.50072
1029.29	5.73466
1032.18	2.17498
1035.07	2.10662
1037.96	4.66503
1040.86	1.16849
1043.75	1.35373
1046.64	1.36503
1049.54	2.03498
1052.43	4.67241
1055.32	0.387819
1058.21	2.51208
1061.11	3.90206
1064	5.56966
1066.89	4.33198
1069.78	3.52236
1072.68	3.21902
1075.57	0.382114
1078.46	0.431587
1081.35	5.18077
1084.25	1.07143
1087.14	4.58079
1090.03	4.06195
1092.92	3.73112
1095.82	0.391982
1098.71	3.42615
1101.6	5.41199
1104.5	3.09713
1107.39	1.67663
1110.28	4.81277
1113.17	4.54722
1116.07	2.7195
1118.96	3.15306
1121.85	3.18195
1124.74	3.33326
1127.64	6.0969
1130.53	4.44888
1133.42	4.99008
1136.32	4.73235
1139.21	0.629846
1142.1	6.48613
1144.99	3.46958
1147.89	2.41097
1150.78	4.84697
1153.67	0.159126
1156.57	1.46756
1159.46	2.267
1162.35	0.543721
1165.24	1.61989
1168.13	3.0876
1171.03	0.647236
1173.92	5.24417
1176.81	2.88174
1179.71	4.05182
1182.6	3.47022
1185.49	3.30453
1188.38	2.94243
1191.28	4.70057
1194.17	5.76172
1197.06	1.56696
1199.95	3.65858
1202.85	1.95969
1205.74	3.86469
1208.63	2.20018
1211.53	2.15151
1214.42	0.520813
1217.31	1.41174
1220.2	2.42387
1223.1	3.13732
1225.99	4.42396
1228.88	3.22573
1231.78	0.046196
1234.67	4.10991
1237.56	4.36133
1240.45	4.57698
1243.35	3.04342
1246.24	3.62824
1249.13	6.37108
1252.02	5.63577
1254.92	3.80435
1257.81	0.034099
1260.7	3.57305
1263.59	4.52731
1266.49	0.662019
1269.38	3.95601
1272.27	2.17262
1275.16	6.74578
1278.06	2.66225
1280.95	2.35237
1283.84	0.028465
