Measurement: Raman, 780 nm, unoriented, Raman Data Processed
Mineral: Clinoatacamite
Rruff sample: R100198
Ideal chemistry: Cu^2+^_2_Cl(OH)_3_
Locality: La Vendida mine, Caracoles, Sierra Gorda District, Tocopilla Province, Antofagasta Region, Chile
Source: Bob Jenkins
Description: Lighter green thin tabular crystals forming v-twins perched on darker green blocky atacamite, associated with black paratacamite. Twinned by 120 deg rotation around [2 0 1]
Measured chemistry: (Cu_1.95_Ni_0.02_Co_0.01_)Cl_1.04_(OH)_3_
Raman shift (cm-1)	intensity
185.1	0
187.993	0.088716
190.886	1.03052
193.778	0.05173
196.671	0.077229
199.564	0.064859
202.457	0.945913
205.349	1.07928
208.242	0.033677
211.135	0.980999
214.027	0.797602
216.92	1.08381
219.813	0.178058
222.705	2.10689
225.598	0.569224
228.491	2.17906
231.383	0.292349
234.276	1.12111
237.169	2.57187
240.061	0.002749
242.954	1.76022
245.847	1.97894
248.74	0.811166
251.632	0.938932
254.525	1.0319
257.418	0.656418
260.31	1.73666
263.203	1.80052
266.096	0.935537
268.988	1.17746
271.881	0.404929
274.774	0.884579
277.667	0.862143
280.559	0.555533
283.452	0.857088
286.345	0.548156
289.237	0.85423
292.13	0.831294
295.023	0.611634
297.916	0.239124
300.808	1.01484
303.701	0.888133
306.594	0.193655
309.486	0.905317
312.379	0.701275
315.272	0.033385
318.164	0.164246
321.057	0.817597
323.95	1.51757
326.842	1.46515
329.735	0.13203
332.628	0.9051
335.521	1.33913
338.413	1.00247
341.306	1.73411
344.199	2.04095
347.091	0.76353
349.984	1.69667
352.877	1.2553
355.769	0.930605
358.662	0.97411
361.555	0.065601
364.447	1.41288
367.34	0.565051
370.233	0.118707
373.126	0.501377
376.018	1.154
378.911	0.716543
381.804	1.63697
384.696	1.46774
387.589	0.570266
390.482	0.678529
393.375	1.25647
396.267	0.884721
399.16	0.705831
402.053	0.256806
404.945	1.05302
407.838	0.216293
410.731	0.606511
413.623	0.596658
416.516	1.08767
419.409	0.181223
422.301	0.730228
425.194	1.27195
428.087	0.849349
430.98	1.11881
433.872	0.224055
436.765	0.277399
439.658	1.42229
442.55	1.67917
445.443	0.966752
448.336	0.028535
451.228	0.660069
454.121	0.744404
457.014	0.402359
459.907	0.440279
462.799	1.19411
465.692	0.558925
468.585	0.613037
471.477	0.911292
474.37	1.90026
477.263	1.02288
480.156	1.54092
483.048	1.70307
485.941	1.62404
488.834	1.56965
491.726	1.66851
494.619	1.40963
497.512	1.75477
500.404	1.46219
503.297	1.48707
506.19	1.0198
509.082	1.19508
511.975	1.981
514.868	1.2215
517.761	2.0645
520.653	1.44897
523.546	1.12564
526.439	0.717254
529.331	0.27415
532.224	0.917717
535.117	0.819996
538.01	1.61039
540.902	0.743238
543.795	0.012832
546.688	1.13617
549.58	0.184791
552.473	0.38395
555.366	0.896825
558.258	1.16551
561.151	0.771235
564.044	0.879571
566.936	0.983052
569.829	1.2734
572.722	1.14887
575.615	1.19481
578.507	0.875145
581.4	0.304858
584.293	1.42159
587.185	1.62392
590.078	1.03129
592.971	1.35625
595.863	1.72293
598.756	1.26979
601.649	1.84273
604.542	0.517116
607.434	0.760415
610.327	0.36152
613.22	0.822713
616.112	0.184649
619.005	1.05375
621.898	0.718914
624.79	1.32164
627.683	0.697658
630.576	0.157669
633.468	0.168025
636.361	1.56241
639.254	0.259198
642.146	0.707873
645.039	0.219126
647.932	0.672093
650.825	0.29583
653.717	0.113753
656.61	0.016586
659.503	0.207116
662.395	0.242137
665.288	1.52519
668.181	0.280269
671.073	0.017006
673.966	1.12541
676.859	1.96732
679.752	0.225801
682.644	0.618698
685.537	1.5379
688.43	0.112102
691.322	1.17947
694.215	0.171476
697.108	0.138223
700	0.574058
702.893	1.21526
705.786	0.796636
708.679	1.12709
711.571	0.146952
714.464	0.626988
717.357	0.128777
720.249	0.375209
723.142	0.709096
726.035	0.979236
728.928	1.07001
731.82	0.868363
734.713	1.24671
737.606	0.772473
740.498	0.64109
743.391	0.294426
746.284	0.376828
749.176	1.2884
752.069	0.012512
754.962	0.890421
757.855	1.30703
760.747	0.624992
763.64	0.439609
766.533	0.15756
769.425	0.81603
772.318	0.795086
775.211	0.412714
778.103	1.08105
780.996	0.932608
783.889	0.10367
786.782	1.11418
789.674	2.00855
792.567	0.480797
795.46	0.445983
798.352	1.20244
801.245	0.770957
804.138	0.988479
807.03	1.80348
809.923	1.26856
812.816	0.445459
815.708	1.69939
818.601	0.458849
821.494	0.828104
824.386	0.471286
827.279	0.200918
830.172	0.486482
833.065	0.384482
835.957	0.886162
838.85	1.49714
841.743	0.972511
844.635	1.19138
847.528	0.438396
850.421	0.955835
853.313	1.40402
856.206	0.311887
859.099	0.411783
861.992	1.01043
864.884	1.06847
867.777	0.811622
870.67	0.154254
873.562	1.09358
876.455	0.974645
879.348	0.941894
882.24	1.05391
885.133	1.75297
888.026	0.384495
890.919	1.06443
893.811	0.653598
896.704	1.09123
899.597	1.05301
902.489	0.691215
905.382	0.547223
908.275	0.55474
911.168	0.42798
914.06	0.302617
916.953	1.43135
919.846	0.901113
922.738	0.085395
925.631	0.133973
928.524	1.61796
931.416	0.476567
934.309	0.506298
937.202	0.708134
940.095	1.80979
942.987	2.37173
945.88	1.09397
948.773	1.82289
951.665	1.08073
954.558	0.988819
957.451	0.759019
960.343	0.431581
963.236	0.012778
966.129	1.52296
969.021	1.40635
971.914	0.869138
974.807	0.720098
977.699	0.695871
980.592	1.15422
983.485	0.242804
986.378	0.098162
989.27	0.59957
992.163	0.37063
995.056	0.485734
997.948	1.05012
1000.84	1.22305
1003.73	0.659465
1006.63	1.06163
1009.52	1.09259
1012.41	0.825474
1015.3	0.653277
1018.2	0.582221
1021.09	0.255382
1023.98	0.592013
1026.88	0.547445
1029.77	1.12949
1032.66	0.668306
1035.55	0.25241
1038.45	0.577195
1041.34	0.929539
1044.23	1.48892
1047.12	0.621177
1050.02	1.16237
1052.91	0.187156
1055.8	0.277751
1058.69	0.180508
1061.59	1.01666
1064.48	1.17072
1067.37	0.940779
1070.27	1.74896
1073.16	0.97567
1076.05	0.533402
1078.94	1.1381
1081.84	0.455157
1084.73	0.106424
1087.62	0.54149
1090.52	1.58393
1093.41	0.6868
1096.3	0.267702
1099.19	0.789895
1102.09	0.582644
1104.98	0.253083
1107.87	0.453297
1110.76	0.630222
1113.66	1.27319
1116.55	0.845461
1119.44	0.60568
1122.33	0.343114
1125.23	0.599391
1128.12	0.712571
1131.01	0.689086
1133.9	1.01125
1136.8	0.772582
1139.69	0.79492
1142.58	1.50423
1145.48	0.166217
1148.37	1.41505
1151.26	1.09648
1154.15	1.13068
1157.05	0.751248
1159.94	0.295387
1162.83	0.871113
1165.72	0.632188
1168.62	1.08125
1171.51	0.834945
1174.4	0.994439
1177.3	0.655417
1180.19	0.519203
1183.08	0.166199
1185.97	1.21076
1188.87	0.574758
1191.76	1.17862
1194.65	0.855264
1197.55	0.813766
1200.44	2.04594
1203.33	1.51228
1206.22	0.130385
1209.12	0.542103
1212.01	1.16307
1214.9	0.874309
1217.79	1.18767
1220.69	1.38253
1223.58	0.738779
1226.47	1.05195
1229.36	0.937657
1232.26	1.04559
1235.15	1.0512
1238.04	1.56177
1240.93	0.889062
1243.83	1.05189
1246.72	1.64982
1249.61	1.36176
1252.51	1.2444
1255.4	1.60608
1258.29	0.278912
1261.18	0.867259
1264.08	1.03262
1266.97	0.143124
1269.86	0.565138
1272.76	1.35303
1275.65	1.45186
1278.54	0.523633
1281.43	0.689813
1284.33	0.617182
