Measurement: Raman, 532 nm, unoriented, Raman Data Processed
Mineral: Cobaltite
Rruff sample: R100119
Ideal chemistry: Co^3+^(AsS)^3-^
Locality: Deerhorn mine, Cobalt, Ontario, Canada
Source: Robert Woodside
Description: Metallic silver-gray cubes
Raman shift (cm-1)	intensity
185.53	0
188.423	1.62372
191.315	1.22948
194.208	3.67094
197.101	13.5142
199.994	16.2847
202.886	6.14058
205.779	4.11852
208.672	3.46615
211.565	7.69807
214.457	13.7028
217.35	20.4223
220.243	6.68401
223.135	0.53331
226.028	1.49874
228.921	1.64265
231.813	0.666618
234.706	2.1788
237.599	3.91986
240.492	4.00327
243.384	4.49959
246.277	4.72268
249.17	4.45283
252.062	8.43925
254.955	10.3274
257.848	16.6292
260.74	9.01041
263.633	13.7949
266.526	24.8506
269.418	19.149
272.311	1.41988
275.204	1.89755
278.097	0.232033
280.989	0.609589
283.882	0.175911
286.775	3.13129
289.667	0.84642
292.56	2.4532
295.453	2.52795
298.346	0.823967
301.238	2.13934
304.131	1.96146
307.024	1.58291
309.916	4.19032
312.809	3.10796
315.702	2.3591
318.594	4.19928
321.487	2.07402
324.38	3.09549
327.273	3.25011
330.165	2.89559
333.058	4.9096
335.951	1.6415
338.843	3.50845
341.736	2.30905
344.629	0.145958
347.522	0.181023
350.414	2.42973
353.307	1.81288
356.2	1.13593
359.092	3.92126
361.985	0.811195
364.878	1.05755
367.77	1.46861
370.663	2.88882
373.556	0.367844
376.449	2.38239
379.341	0.907433
382.234	1.58731
385.127	0.829079
388.019	1.51848
390.912	2.74596
393.805	0.198929
396.697	0.886948
399.59	2.75894
402.483	0.872284
405.376	1.32933
408.268	1.49925
411.161	0.353638
414.054	1.92036
416.946	1.08592
419.839	2.63793
422.732	1.29498
425.625	0.619461
428.517	2.00654
431.41	2.0956
434.303	1.21546
437.195	0.517113
440.088	3.34052
442.981	1.89473
445.873	2.61089
448.766	2.82055
451.659	0.973404
454.551	1.72544
457.444	2.13031
460.337	1.70597
463.23	0.818642
466.122	0.709396
469.015	2.315
471.908	0.673912
474.8	1.25481
477.693	3.30417
480.586	1.08421
483.479	0.87851
486.371	1.59621
489.264	1.30607
492.157	2.66719
495.049	1.45169
497.942	0.644508
500.835	1.78494
503.728	0.651924
506.62	1.62692
509.513	1.69837
512.406	1.99603
515.298	2.67896
518.191	2.33139
521.084	4.1012
523.976	0.900848
526.869	0.981941
529.762	3.0391
532.654	0.565361
535.547	2.04376
538.44	0.983948
541.333	2.49041
544.225	0.993454
547.118	0.475182
550.011	0.536285
552.903	2.62621
555.796	0.584381
558.689	1.79716
561.582	1.73671
564.474	1.30345
567.367	0.865021
570.26	1.45352
573.152	0.462173
576.045	2.03045
578.938	0.009941
581.83	0.280052
584.723	1.0798
587.616	0.126808
590.509	1.85282
593.401	2.37689
596.294	0.213226
599.187	2.61568
602.079	2.40272
604.972	1.04231
607.865	2.00212
610.758	1.17969
613.65	0.284271
616.543	0.580078
619.436	1.69063
622.328	2.19302
625.221	0.555565
628.114	1.7864
631.006	1.65301
633.899	0.530098
636.792	1.64217
639.684	1.83232
642.577	1.64948
645.47	3.00536
648.363	1.61626
651.255	0.904816
654.148	0.016563
657.041	0.293312
659.933	2.7911
662.826	2.99996
665.719	1.17909
668.612	2.46673
671.504	2.10316
674.397	2.22831
677.29	2.89633
680.182	1.31689
683.075	0.887611
685.968	3.10698
688.861	1.71477
691.753	2.24932
694.646	1.24645
697.539	1.71738
700.431	2.3016
703.324	0.175507
706.217	1.41944
709.109	0.931404
712.002	1.8495
714.895	0.809395
717.788	0.372116
720.68	1.02833
723.573	1.4264
726.466	1.37386
729.358	1.17751
732.251	3.07212
735.144	1.35085
738.036	0.912659
740.929	0.27124
743.822	0.177452
746.715	1.3342
749.607	1.36884
752.5	1.58449
755.393	1.21003
758.285	0.075089
761.178	1.91167
764.071	0.58709
766.963	0.507126
769.856	1.75747
772.749	1.95632
775.642	0.903084
778.534	0.016663
781.427	1.07267
784.32	2.83715
787.212	2.84258
790.105	1.33757
792.998	0.791267
795.89	1.12815
798.783	1.28544
801.676	2.05129
804.569	2.70837
807.461	1.6129
810.354	0.627747
813.247	2.88634
816.139	1.41282
819.032	1.81255
821.925	1.60783
824.818	1.21046
827.71	0.290787
830.603	0.355026
833.496	1.6105
836.388	0.062546
839.281	0.649788
842.174	0.938103
845.067	1.40136
847.959	1.50851
850.852	2.07435
853.745	1.00779
856.637	1.59274
859.53	1.2434
862.423	2.72352
865.315	0.662102
868.208	1.1134
871.101	1.84583
873.994	2.86724
876.886	1.99483
879.779	0.764412
882.672	0.616287
885.564	1.99733
888.457	0.863853
891.35	1.63258
894.242	0.138603
897.135	1.58947
900.028	1.44287
902.92	1.24724
905.813	2.24394
908.706	2.45273
911.599	0.335381
914.491	0.031052
917.384	0.61927
920.277	2.19669
923.169	0.64502
926.062	0.347748
928.955	3.50879
931.847	3.80223
934.74	0.599693
937.633	1.39874
940.526	0.741615
943.418	0.550789
946.311	1.81275
949.204	0.501213
952.096	2.45293
954.989	1.13572
957.882	1.83578
960.775	0.772491
963.667	1.37769
966.56	0.357216
969.453	2.84547
972.345	2.32193
975.238	2.59707
978.131	2.15924
981.024	1.44927
983.916	1.7124
986.809	1.66457
989.702	0.947868
992.594	0.011848
995.487	0.103027
998.38	1.89615
1001.27	2.22955
1004.16	0.269585
1007.06	2.55701
1009.95	1.89196
1012.84	3.14259
1015.74	2.3492
1018.63	2.16132
1021.52	0.75116
1024.41	0.857239
1027.31	2.3458
1030.2	1.39209
1033.09	2.12059
1035.98	2.36176
1038.88	2.81558
1041.77	1.9016
1044.66	1.80534
1047.56	2.51235
1050.45	2.24927
1053.34	2.20777
1056.23	1.17722
1059.13	0.564667
1062.02	2.71254
1064.91	0.055115
1067.81	1.27485
1070.7	0.75116
1073.59	3.84367
1076.48	1.72549
1079.38	2.75717
1082.27	2.44009
1085.16	0.905701
1088.05	2.14818
1090.95	2.5462
1093.84	1.4647
1096.73	3.77778
1099.62	0.173706
1102.52	1.7167
1105.41	1.74225
1108.3	0.962433
1111.19	1.16805
1114.09	0.465385
1116.98	0.984062
1119.87	1.94481
1122.77	0.376526
1125.66	0.431473
1128.55	0.666847
1131.44	1.71062
1134.34	1.58647
1137.23	1.01672
1140.12	0.968727
1143.02	0.222893
1145.91	1.21122
1148.8	2.43856
1151.69	0.010292
1154.59	2.07527
1157.48	1.9801
1160.37	0.321846
1163.26	2.42592
1166.16	1.3441
1169.05	2.43102
1171.94	1.36453
1174.84	1.49777
1177.73	1.3799
1180.62	1.72029
1183.51	2.14758
1186.4	0.474106
1189.3	2.69318
1192.19	1.80379
1195.08	2.00039
1197.98	1.6236
1200.87	0.568687
1203.76	3.23353
1206.65	2.1488
1209.55	3.51628
1212.44	1.2437
1215.33	1.25045
1218.22	1.05553
1221.12	0.014839
1224.01	3.1612
1226.9	0.930542
1229.8	1.11702
1232.69	2.38477
1235.58	2.01082
1238.47	0.899643
1241.37	0.587303
1244.26	2.60033
1247.15	1.93565
1250.05	2.07696
1252.94	2.27261
1255.83	3.55103
1258.72	1.47797
1261.62	1.82167
1264.51	1.21423
1267.4	3.74439
1270.29	1.02559
1273.19	0.7714
1276.08	1.87303
1278.97	2.2528
1281.87	0.855827
1284.76	2.40227
1287.65	1.11525
1290.54	0.088562
1293.43	3.11475
1296.33	2.36097
1299.22	3.65635
1302.11	0.738098
