Measurement: Raman, 785 nm, unoriented, Raman Data Processed
Mineral: Cobaltomenite
Rruff sample: R070352
Ideal chemistry: Co^2+^Se^4+^O_3_2H_2_O
Locality: Temple Mountain, San Rafael District (San Rafael Swell), Emery County, Utah, USA
Source: Michael Scott
Description: Purple druse of tabular crystals
Raman shift (cm-1)	intensity
277.707	0
280.118	158.769
282.529	113.844
284.939	82.5079
287.35	147.132
289.76	133.585
292.171	27.1342
294.581	51.0584
296.992	7.4736
299.403	173.296
301.813	120.138
304.224	141.071
306.634	203.089
309.045	173.157
311.455	180.921
313.866	69.3132
316.277	150.621
318.687	94.2828
321.098	187.76
323.508	4.85582
325.919	68.5609
328.33	63.7079
330.74	110.532
333.151	25.8094
335.561	23.9369
337.972	23.9604
340.382	77.6627
342.793	120.844
345.204	65.7169
347.614	85.0861
350.025	176.193
352.435	199.853
354.846	169.25
357.257	150.032
359.667	223.595
362.078	162.48
364.488	116.661
366.899	166.915
369.31	140.87
371.72	19.6397
374.131	27.4077
376.541	27.0054
378.952	32.5133
381.362	79.5468
383.773	69.9126
386.184	111.908
388.594	17.9598
391.005	59.7773
393.415	44.145
395.826	26.7409
398.236	41.9736
400.647	57.802
403.058	6.28057
405.468	29.7757
407.879	54.0652
410.289	28.468
412.7	14.5767
415.111	27.6491
417.521	159.987
419.932	163.923
422.342	187.146
424.753	137.846
427.163	198.308
429.574	92.4017
431.985	237.573
434.395	26.1829
436.806	211.907
439.216	34.8926
441.627	208.758
444.038	239.226
446.448	225.419
448.859	245.062
451.269	80.0981
453.68	281.208
456.091	84.802
458.501	58.5692
460.912	36.9556
463.322	151.042
465.733	180.404
468.143	69.5328
470.554	404.446
472.965	57.513
475.375	62.0098
477.786	202.652
480.196	17.4279
482.607	22.1915
485.017	88.1748
487.428	83.7558
489.839	475.122
492.249	279.319
494.66	116.617
497.07	144.133
499.481	62.6506
501.892	181.058
504.302	16.7305
506.713	131.913
509.123	286.033
511.534	178.355
513.944	343.797
516.355	235.273
518.766	63.0231
521.176	84.9807
523.587	70.3889
525.997	211.159
528.408	187.29
530.819	277.788
533.229	228.206
535.64	1.05552
538.05	14.3156
540.461	293.158
542.871	68.4433
545.282	56.0638
547.693	66.6839
550.103	144.481
552.514	0.55822
554.924	147.312
557.335	117.686
559.745	252.435
562.156	239.28
564.567	261.058
566.977	133.719
569.388	70.8333
571.798	229.18
574.209	31.1127
576.62	165.695
579.03	168.54
581.441	233.84
583.851	284.488
586.262	211.225
588.673	149.689
591.083	203.473
593.494	146.397
595.904	196.02
598.315	287.844
600.726	123.555
603.136	250.262
605.547	380.661
607.957	78.8865
610.368	99.7896
612.778	324.486
615.189	127.445
617.6	16.7917
620.01	156.461
622.421	225.722
624.831	322.842
627.242	359.944
629.653	156.01
632.063	45.781
634.474	169.713
636.884	185.14
639.295	175.166
641.705	119.9
644.116	25.4295
646.527	7.68494
648.937	56.6196
651.348	29.2306
653.758	116.846
656.169	141.094
658.58	25.849
660.99	82.1306
663.401	1.09702
665.811	46.6359
668.222	114.185
670.632	83.7312
673.043	135.722
675.454	106.018
677.864	172.642
680.275	196.315
682.685	101.339
685.096	112.393
687.506	208.715
689.917	133.49
692.328	131.492
694.738	293.285
697.149	355.072
699.559	359.49
701.97	363.971
704.381	255.238
706.791	261.188
709.202	382.006
711.612	305.085
714.023	321.102
716.433	189.509
718.844	446.481
721.255	365.44
723.665	368.736
726.076	200.819
728.486	283.89
730.897	280.259
733.308	218.769
735.718	162.895
738.129	260.947
740.539	165.565
742.95	103.411
745.361	165.81
747.771	134.404
750.182	254.297
752.592	90.5477
755.003	165.827
757.413	124.235
759.824	102.831
762.235	54.6549
764.645	32.9781
767.056	1.43603
769.466	169.951
771.877	18.6793
774.288	27.077
776.698	186.521
779.109	12.0254
781.519	56.5978
783.93	1.7801
786.34	44.4378
788.751	202.101
791.162	243.842
793.572	236.243
795.983	124.627
798.393	407.255
800.804	108.807
803.215	435.986
805.625	724.95
808.036	773.587
810.446	681.207
812.857	671.33
815.267	460.276
817.678	530.578
820.089	378.499
822.499	183.566
824.91	167.57
827.32	197.717
829.731	144.961
832.141	119.555
834.552	102.428
836.963	70.3957
839.373	57.269
841.784	44.2451
844.194	189.714
846.605	0.952581
849.016	45.1608
851.426	15.1475
853.837	27.0657
856.247	0.795534
858.658	15.5114
861.068	165.321
863.479	55.3325
865.89	98.6398
868.3	66.2433
870.711	151.429
873.121	124.334
875.532	125.081
877.943	40.5998
880.353	305.713
882.764	182.319
885.174	65.9677
887.585	81.2173
889.995	119.177
892.406	121.264
894.817	11.6162
897.227	23.4916
899.638	241.804
902.048	18.3075
904.459	110.826
906.87	154.967
909.28	235.048
911.691	245.7
914.101	62.9129
916.512	147.207
918.923	274.612
921.333	15.9138
923.744	85.1888
926.154	233.764
928.565	248.056
930.975	159.897
933.386	200.058
935.797	32.8841
938.207	127.177
940.618	59.6592
943.028	217.785
945.439	5.70472
947.85	25.2483
950.26	84.0459
952.671	76.99
955.081	138.425
957.492	144.101
959.902	215.555
962.313	193.133
964.724	65.0399
967.134	5.35054
969.545	66.2801
971.955	65.5891
974.366	162.726
976.777	18.6436
979.187	109.835
981.598	137.686
984.008	149.211
986.419	132.317
988.829	125.791
991.24	151.383
993.651	93.2382
996.061	60.1848
998.472	78.1216
1000.88	109.82
1003.29	26.4809
1005.7	225.828
1008.11	31.4498
1010.52	130.305
1012.93	34.4722
1015.35	158.796
1017.76	27.0617
1020.17	138.975
1022.58	180.855
1024.99	117.961
1027.4	100.298
1029.81	50.5647
1032.22	82.25
1034.63	165.564
1037.04	114.473
1039.45	104.577
1041.86	6.69949
1044.27	18.7386
1046.68	39.6288
1049.09	105.223
1051.51	127.761
1053.91	21.3512
1056.33	106.464
1058.74	157.241
1061.15	5.66336
1063.56	46.5167
1065.97	8.63269
1068.38	64.4076
1070.79	41.5016
1073.2	151.115
1075.61	140.138
1078.02	161.125
1080.43	138.623
1082.84	183.345
1085.25	111.941
1087.66	147.244
1090.07	24.4085
1092.48	95.1319
1094.89	112.203
1097.31	42.8913
1099.72	173.171
1102.13	235.765
1104.54	132.29
1106.95	98.7635
1109.36	124.223
1111.77	135.801
1114.18	107.422
1116.59	128.472
1119	96.2528
1121.41	209.81
1123.82	103.665
1126.23	190.334
1128.64	117.946
1131.05	115.51
1133.46	154.739
1135.88	171.62
1138.29	102.747
1140.7	255.393
1143.11	163.862
1145.52	148.166
1147.93	89.2102
1150.34	157.565
1152.75	88.2273
1155.16	163.197
1157.57	92.2315
1159.98	66.9198
1162.39	82.5925
1164.8	109.294
1167.21	18.8782
1169.62	41.3559
1172.03	89.179
1174.44	0.712227
1176.86	62.2283
1179.27	78.9026
1181.68	191.491
1184.09	27.2751
1186.5	49.1063
1188.91	85.6582
1191.32	123.097
1193.73	168.42
1196.14	144.585
1198.55	210.575
1200.96	70.7227
1203.37	64.6751
1205.78	79.4191
1208.19	122.234
1210.6	79.8803
1213.01	77.676
1215.42	138.5
1217.84	81.5279
1220.24	0.065492
1222.66	140.588
1225.07	101.285
1227.48	26.8186
1229.89	2.5003
1232.3	52.4385
