Measurement: Raman, 785 nm, unoriented, Raman Data Processed
Mineral: Coffinite
Rruff sample: R070402
Ideal chemistry: U^4+^(SiO_4_)nH_2_O
Locality: Happy Jack mine (Blue Dike mine), Copper Point, White Canyon, White Canyon District, San Juan County, Utah, USA
Source: Michael Scott
Description: Black grains in sandstone associated with uranopilite
Raman shift (cm-1)	intensity
194.301	0
197.194	16.1265
200.087	4.17627
202.979	41.9512
205.872	45.498
208.765	75.5176
211.657	23.8516
214.55	3.13867
217.443	70.0293
220.335	64.3232
223.228	50.8442
226.121	78.4434
229.013	31.6968
231.906	61.0781
234.799	46.7471
237.692	69.0815
240.584	78.7446
243.477	66.9243
246.37	59.8247
249.262	43.457
252.155	32.3525
255.048	48.7134
257.941	17.8667
260.833	55.082
263.726	60.8677
266.619	49.8145
269.511	53.8965
272.404	45.8057
275.297	9.02246
278.19	12.5693
281.082	72.3149
283.975	73.8804
286.868	41.0688
289.76	31.9805
292.653	30.2827
295.546	4.771
298.438	11.8613
301.331	0.011719
304.224	21.8018
307.116	77.0454
310.009	39.8452
312.902	99.666
315.795	19.2427
318.687	10.6816
321.58	52.5913
324.473	49.5273
327.365	14.8911
330.258	26.4077
333.151	56.895
336.043	42.6401
338.936	56.6089
341.829	76.2915
344.721	59.373
347.614	107.997
350.507	82.4551
353.4	99.6992
356.292	96.7534
359.185	12.0767
362.078	72.709
364.97	69.4482
367.863	35.6562
370.756	85.0283
373.649	32.4067
376.541	23.5566
379.434	10.7114
382.327	6.71436
385.219	32.272
388.112	16.1963
391.005	10.2661
393.897	57.5259
396.79	39.0425
399.683	37.0605
402.575	63.436
405.468	51.3062
408.361	26.3218
411.254	42.4678
414.146	40.7544
417.039	11.7041
419.932	51.687
422.824	85.1665
425.717	33.1343
428.61	59.0039
431.502	29.1685
434.395	39.1397
437.288	13.8828
440.181	22.6387
443.073	65.3306
445.966	51.3491
448.859	86.2778
451.751	60.9238
454.644	35.2246
457.537	0.626953
460.43	73.269
463.322	83.7358
466.215	62.4233
469.108	58.2549
472	21.5474
474.893	28.8511
477.786	34.6392
480.678	50.063
483.571	68.1724
486.464	68.3872
489.356	71.147
492.249	56.5293
495.142	67.1997
498.035	93.6265
500.927	82.1084
503.82	88.0474
506.713	98.5147
509.605	77.5786
512.498	98.3179
515.391	106.674
518.284	102.513
521.176	90.5737
524.069	62.543
526.962	83.4316
529.854	106.293
532.747	59.9517
535.64	55.7637
538.533	56.686
541.425	34.2695
544.318	13.919
547.211	39.6562
550.103	31.7788
552.996	40.5415
555.889	46.9853
558.781	32.062
561.674	2.47559
564.567	30.4565
567.459	6.19482
570.352	23.7056
573.245	14.6191
576.138	12.0015
579.03	26.5146
581.923	48.5127
584.816	51.7285
587.708	1.72461
590.601	16.8833
593.494	31.2627
596.386	69.0606
599.279	8.78565
602.172	23.3828
605.064	62.9434
607.957	43.5493
610.85	77.1875
613.743	42.6484
616.635	76.1631
619.528	98.6431
622.421	118.436
625.313	190.459
628.206	175.134
631.099	251.412
633.991	242.055
636.884	325.85
639.777	381.649
642.67	430.033
645.562	527.589
648.455	559.585
651.348	680.502
654.24	764.753
657.133	804.244
660.026	936.287
662.918	1022.31
665.811	1108.18
668.704	1205.94
671.597	1271.86
674.489	1358.27
677.382	1289.71
680.275	1333.38
683.167	1275.98
686.06	1206.05
688.953	1097.45
691.846	1026.35
694.738	914.908
697.631	763.04
700.524	697.688
703.416	543.908
706.309	485.071
709.202	398.856
712.094	325.481
714.987	268.559
717.88	274.82
720.773	194.504
723.665	121.553
726.558	142.972
729.451	124.839
732.343	151.751
735.236	49.9263
738.129	48.4644
741.021	22.6904
743.914	12.0664
746.807	36.3696
749.699	43.7315
752.592	31.1455
755.485	18.7412
758.378	71.2734
761.27	10.0693
764.163	20.6348
767.056	5.14893
769.948	34.9214
772.841	20.2275
775.734	71.4243
778.626	9.69629
781.519	8.2876
784.412	6.5918
787.305	23.3564
790.197	40.7993
793.09	27.7803
795.983	79.4434
798.875	48.7432
801.768	27.4448
804.661	48.3618
807.553	10.458
810.446	76.7227
813.339	49.9023
816.232	71.5957
819.124	68.2651
822.017	7.50244
824.91	26.0586
827.802	116.069
830.695	10.0229
833.588	78.2378
836.481	57.8516
839.373	52.7725
842.266	49.9307
845.159	48.9531
848.051	38.3706
850.944	69.5234
853.837	57.6343
856.729	0.416992
859.622	17.54
862.515	39.9937
865.408	46.1826
868.3	33.9282
871.193	2.34619
874.086	23.707
876.978	53.2373
879.871	25.6597
882.764	25.3481
885.656	34.0583
888.549	4.69653
891.442	49.4324
894.335	34.5532
897.227	29.0479
900.12	15.9748
903.013	48.0701
905.905	49.0366
908.798	24.2224
911.691	46.9939
914.583	2.27734
917.476	47.5276
920.369	48.5234
923.261	24.0212
926.154	50.6174
929.047	27.2412
931.94	69.9219
934.832	28.4927
937.725	19.0554
940.618	14.8848
943.51	23.2798
946.403	61.675
949.296	22.2737
952.188	8.70703
955.081	63.0684
957.974	24.5188
960.867	62.8679
963.759	15.8191
966.652	77.1375
969.545	8.42383
972.437	53.6103
975.33	60.8645
978.223	39.2188
981.115	35.5347
984.008	42.012
986.901	41.5808
989.794	49.7776
992.686	21.5327
995.579	75.4568
998.472	24.7732
1001.36	41.291
1004.26	58.2126
1007.15	31.6416
1010.04	73.4712
1012.93	23.5227
1015.83	15.7685
1018.72	34.5273
1021.61	2.97852
1024.51	64.0022
1027.4	40.8428
1030.29	19.7793
1033.18	23.0818
1036.08	2.43091
1038.97	43.2825
1041.86	33.9495
1044.76	28.0908
1047.65	17.3923
1050.54	8.2229
1053.43	29.5207
1056.33	33.7117
1059.22	34.5471
1062.11	31.064
1065	24.5752
1067.9	9.89062
1070.79	66.8572
1073.68	45.1814
1076.58	59.8877
1079.47	67.9617
1082.36	81.4299
1085.25	48.3616
1088.14	41.325
1091.04	11.2561
1093.93	51.8738
1096.82	39.7981
1099.72	26.8811
1102.61	70.312
1105.5	50.9016
1108.39	23.8252
1111.29	25.7085
1114.18	28.3677
1117.07	53.3491
1119.96	17.1968
1122.86	46.897
1125.75	18.8987
1128.64	31.74
1131.54	13.1279
1134.43	44.0232
1137.32	83.6819
1140.21	60.687
1143.11	15.2231
1146	50.6392
1148.89	34.062
1151.79	47.0491
1154.68	79.7947
1157.57	32.6516
1160.46	62.6106
1163.36	42.9541
1166.25	40.7998
1169.14	33.5022
1172.03	29.8623
1174.93	27.5608
1177.82	3.95044
1180.71	24.3018
1183.6	32.9658
1186.5	51.915
1189.39	11.3691
1192.28	28.5703
1195.17	10.8008
1198.07	32.0478
1200.96	39.3745
1203.85	31.8154
1206.75	54.8918
1209.64	33.313
1212.53	17.2795
1215.42	47.0388
