Measurement: Raman, 532 nm, unoriented, Raman Data Processed
Mineral: Coffinite
Rruff sample: R070402
Ideal chemistry: U^4+^(SiO_4_)nH_2_O
Locality: Happy Jack mine (Blue Dike mine), Copper Point, White Canyon, White Canyon District, San Juan County, Utah, USA
Source: Michael Scott
Description: Black grains in sandstone associated with uranopilite
Raman shift (cm-1)	intensity
171.839	0
174.732	63.8281
177.625	49.9014
180.517	49.5461
183.41	3.80127
186.303	49.3281
189.195	7.78271
192.088	58.217
194.981	91.4426
197.874	113.336
200.766	115.267
203.659	83.1379
206.552	26.7627
209.444	22.2122
212.337	125.035
215.23	88.6096
218.122	100.072
221.015	50.311
223.908	31.5549
226.8	61.9902
229.693	38.2835
232.586	78.5945
235.479	7.40942
238.371	47.7981
241.264	58.1084
244.157	41.1694
247.049	32.9292
249.942	43.8272
252.835	42.4961
255.727	49.2476
258.62	17.2183
261.513	24.3657
264.406	46.731
267.298	53.8579
270.191	56.6372
273.084	2.68848
275.976	92.7544
278.869	49.1035
281.762	98.0801
284.655	58.1045
287.547	74.1143
290.44	69.8501
293.333	49.5571
296.225	17.6499
299.118	25.4311
302.011	44.4912
304.904	23.7329
307.796	11.8301
310.689	32.0845
313.582	40.0405
316.474	4.81152
319.367	6.02832
322.26	46.5791
325.152	52.4746
328.045	57.0532
330.938	35.564
333.83	73.7617
336.723	76.394
339.616	79.064
342.509	110.019
345.401	91.1856
348.294	77.1504
351.187	58.3633
354.079	90.4893
356.972	86.5283
359.865	113.06
362.757	25.3252
365.65	64.3023
368.543	60.854
371.436	31.3369
374.328	45.8706
377.221	31.9297
380.114	97.0107
383.006	86.7197
385.899	76.9678
388.792	142.224
391.685	62.3882
394.577	76.6475
397.47	82.5801
400.363	79.7007
403.255	119.096
406.148	67.5644
409.041	76.1519
411.933	68.2739
414.826	46.1626
417.719	40.9927
420.611	53.727
423.504	33.416
426.397	1.92871
429.29	31.8486
432.182	34.5654
435.075	17.3594
437.968	27.6768
440.86	7.41992
443.753	45.9624
446.646	35.481
449.538	61.5244
452.431	34.481
455.324	3.21631
458.217	26.1406
461.109	38.2505
464.002	75.2734
466.895	19.7139
469.787	28.8057
472.68	77.0635
475.573	77.2954
478.466	43.2881
481.358	95.2769
484.251	45.0498
487.144	61.2744
490.036	55.126
492.929	63.2803
495.822	82.4775
498.714	49.8227
501.607	95.5244
504.5	68.8071
507.393	58.6841
510.285	90.7139
513.178	98.3438
516.071	99.79
518.963	21.6001
521.856	93.1685
524.749	102.283
527.641	60.9145
530.534	55.9463
533.427	10.8086
536.32	29.1904
539.212	2.4624
542.105	48.7598
544.998	65.3848
547.89	29.1909
550.783	16.3413
553.676	9.75195
556.568	23.2476
559.461	40.6592
562.354	0.021973
565.247	11.7925
568.139	7.06396
571.032	12.1768
573.925	51.8491
576.817	15.604
579.71	10.9214
582.603	40.8935
585.495	63.8877
588.388	53.4507
591.281	55.0552
594.174	44.8149
597.066	47.4766
599.959	86.5635
602.852	58.8711
605.744	66.2925
608.637	47.873
611.53	67.7002
614.423	59.623
617.315	154.089
620.208	126.233
623.101	202.382
625.993	250.852
628.886	221.201
631.779	251.441
634.671	277.483
637.564	256.559
640.457	236.761
643.35	266.116
646.242	265.182
649.135	268.669
652.028	323.75
654.92	312.445
657.813	312.969
660.706	336.745
663.598	311.864
666.491	332.226
669.384	324.326
672.277	290.373
675.169	249.293
678.062	269.955
680.955	367.891
683.847	341.208
686.74	240.863
689.633	294.102
692.525	238.761
695.418	167.124
698.311	221.51
701.204	135.045
704.096	120.883
706.989	126.659
709.882	110.173
712.774	107.043
715.667	76.6387
718.56	63.9458
721.452	56.6079
724.345	71.7353
727.238	5.99268
730.131	75.8203
733.023	48.6191
735.916	15.1284
738.809	3.49902
741.701	18.249
744.594	37.3306
747.487	9.34766
750.38	11.7231
753.272	38.998
756.165	13.7886
759.058	45.5737
761.95	32.186
764.843	69.6685
767.736	39.771
770.628	54.0718
773.521	27.5078
776.414	75.4819
779.307	82.7539
782.199	59.1826
785.092	35.4492
787.985	24.127
790.877	67.0415
793.77	46.6245
796.663	70.4106
799.555	87.9932
802.448	8.99023
805.341	81.2856
808.234	67.147
811.126	47.8447
814.019	15.3032
816.912	37.9839
819.804	139.334
822.697	65.8447
825.59	74.6377
828.482	21.0322
831.375	61.2183
834.268	8.74365
837.16	0.650391
840.053	34.9028
842.946	44.2012
845.839	56.9902
848.731	96.4219
851.624	42.1919
854.517	52.5039
857.409	36.2773
860.302	12.0283
863.195	77.7305
866.087	11.0713
868.98	39.6328
871.873	50.6509
874.766	7.125
877.658	66.2202
880.551	25.0024
883.444	96.9736
886.337	143.31
889.229	58.6724
892.122	116.073
895.015	62.0991
897.907	85.0039
900.8	61.4585
903.693	74.5874
906.585	108.499
909.478	28.2725
912.371	41.2197
915.264	63.5903
918.156	92.4038
921.049	55.6313
923.942	67.3975
926.834	45.9316
929.727	67.2036
932.62	69.5308
935.512	27.896
938.405	16.4302
941.298	30.2021
944.191	65.5732
947.083	38.563
949.976	16.894
952.869	90.3457
955.761	67.0474
958.654	64.7202
961.547	1.04297
964.439	38.3911
967.332	92.0606
970.225	60.8765
973.117	32.897
976.01	50.3057
978.903	29.5132
981.796	100.703
984.688	65.3071
987.581	71.4985
990.474	48.5752
993.366	51.5884
996.259	62.4023
999.152	77.7715
1002.04	37.7041
1004.94	46.2754
1007.83	41.1416
1010.72	79.4522
1013.62	75.0644
1016.51	62.084
1019.4	6.5376
1022.29	79.645
1025.19	74.9761
1028.08	43.9468
1030.97	59.9355
1033.86	24.0752
1036.76	36.023
1039.65	29.5474
1042.54	76.3086
1045.43	44.6196
1048.33	18.0742
1051.22	49.5552
1054.11	88.5845
1057.01	10.7422
1059.9	79.4717
1062.79	85.7466
1065.68	89.6392
1068.58	43.4941
1071.47	26.9165
1074.36	41.0044
1077.26	18.9487
1080.15	52.7769
1083.04	48.8799
1085.93	83.6001
1088.83	91.1528
1091.72	57.7593
1094.61	43.6294
1097.5	105.941
1100.4	22.5503
1103.29	51.459
1106.18	59.8452
1109.07	29.7007
1111.97	51.0566
1114.86	56.1704
1117.75	40.5493
1120.64	27.3457
1123.54	28.7031
1126.43	28.6035
1129.32	38.7959
1132.22	98.5474
1135.11	43.312
1138	20.3799
1140.89	40.5415
1143.79	29.7534
1146.68	11.5747
1149.57	88.126
1152.46	68.8633
1155.36	2.7168
1158.25	33.436
1161.14	52.6597
1164.04	46.4185
1166.93	16.8735
1169.82	58.8252
1172.71	60.4351
1175.61	13.2534
1178.5	30.4482
1181.39	35.436
1184.29	69.8438
1187.18	61.6157
1190.07	7.92139
1192.96	43.0562
1195.86	0.952637
1198.75	4.0415
1201.64	29.499
1204.53	59.1685
1207.43	12.8457
1210.32	52.4619
1213.21	10.0879
1216.1	72.7905
1219	27.2944
1221.89	22.6201
1224.78	49.1001
1227.67	96.7563
1230.57	36.8643
1233.46	53.4399
1236.35	3.32812
1239.25	16.9287
1242.14	53.2935
1245.03	74.5396
1247.92	49.2246
1250.82	32.1367
1253.71	76.4458
1256.6	5.26709
1259.49	75.064
1262.39	2.3457
1265.28	81.1611
1268.17	38.4678
1271.07	63.6797
1273.96	40.6045
1276.85	31.6924
1279.74	27.8887
1282.64	96.4209
1285.53	66.6406
1288.42	78.3701
1291.32	0.397461
1294.21	92.2734
