Measurement: Raman, 780 nm, unoriented, Raman Data Processed
Mineral: Cohenite
Rruff sample: R100076
Ideal chemistry: Fe_3_C
Locality: Asuk, Disko, West Greenland, Greenland
Source: Michael Scott
Description: Polished thick section associated with native iron
Measured chemistry: Fe_2.96_Ni_.02_C, normalized to 1 carbon
Raman shift (cm-1)	intensity
118.532	1.18471
121.907	18.2274
125.281	40.7653
128.656	22.4595
132.031	15.4502
135.406	10.9979
138.781	17.4416
142.155	17.7407
145.53	8.73157
148.905	5.65276
152.28	1.87167
155.655	0.659412
159.03	0.058456
162.404	0.523064
165.779	0.30011
169.154	0.254059
172.529	3.75667
175.904	5.94107
179.278	5.29281
182.653	8.87226
186.028	9.95289
189.403	8.07885
192.778	7.69097
196.153	9.90956
199.527	10.6397
202.902	11.7974
206.277	12.2154
209.652	10.2108
213.027	10.64
216.401	11.1768
219.776	11.1196
223.151	9.33704
226.526	8.87665
229.901	8.79458
233.275	6.50334
236.65	7.42698
240.025	9.12275
243.4	9.86862
246.775	8.87806
250.15	7.24464
253.524	7.78783
256.899	4.2519
260.274	2.69122
263.649	3.43053
267.024	4.54465
270.399	3.51362
273.773	2.96897
277.148	1.17074
280.523	2.32178
283.898	3.0919
287.273	1.94744
290.647	1.98583
294.022	0.069571
297.397	1.40529
300.772	0.759117
304.147	2.63175
307.522	2.11284
310.896	2.85125
314.271	0.826352
317.646	2.01734
321.021	0.257883
324.396	1.43582
327.77	1.38478
331.145	0.790967
334.52	1.69073
337.895	2.63926
341.27	4.11112
344.644	1.35466
348.019	1.03379
351.394	1.24506
354.769	3.20635
358.144	1.97666
361.519	0.589987
364.893	2.16274
368.268	1.52076
371.643	2.25674
375.018	3.82042
378.393	3.10609
381.767	1.20874
385.142	0.069023
388.517	2.30621
391.892	1.91574
395.267	1.32924
398.642	3.14221
402.016	0.439486
405.391	1.34632
408.766	1.51571
412.141	0.815977
415.516	0.922363
418.89	3.72063
422.265	0.514561
425.64	1.26343
429.015	2.55398
432.39	0.950318
435.765	0.593979
439.139	2.17453
442.514	2.59845
445.889	3.06182
449.264	2.58883
452.639	2.25493
456.014	2.98004
459.388	0.294555
462.763	0.052925
466.138	2.82964
469.513	2.99142
472.887	1.93453
476.262	2.03628
479.637	1.69215
483.012	3.01913
486.387	2.85611
489.762	2.14792
493.136	2.05962
496.511	1.70677
499.886	2.00437
503.261	1.61015
506.636	2.375
510.01	1.56729
513.385	2.28494
516.76	2.65727
520.135	0.883486
523.51	1.14105
526.885	2.62685
530.259	2.37773
533.634	1.28314
537.009	1.77163
540.384	0.288393
543.759	2.51752
547.134	5.14644
550.508	7.49341
553.883	4.63508
557.258	2.43915
560.633	0.196942
564.008	1.57991
567.382	1.41174
570.757	2.98595
574.132	2.47863
577.507	2.28575
580.882	0.81213
584.256	1.97778
587.631	0.953931
591.006	0.546334
594.381	1.34042
597.756	0.212533
601.131	1.24145
604.505	2.43621
607.88	1.35705
611.255	3.11009
614.63	1.04234
618.005	1.00354
621.38	0.317737
624.754	2.68348
628.129	1.87896
631.504	1.34917
634.879	1.17815
638.254	1.42161
641.628	1.17523
645.003	2.90079
648.378	1.0299
651.753	1.23141
655.128	1.42024
658.503	3.01991
661.877	1.25312
665.252	1.5137
668.627	0.652361
672.002	1.05905
675.377	1.79339
678.751	1.8656
682.126	1.61528
685.501	2.36976
688.876	1.94656
692.251	1.96912
695.625	2.85216
699	3.6025
702.375	1.48863
705.75	0.522268
709.125	0.466861
712.5	1.32992
715.874	0.811707
719.249	0.401388
722.624	1.30198
725.999	0.448124
729.374	1.30338
732.749	2.54948
736.123	1.78263
739.498	1.55268
742.873	1.0243
746.248	1.38879
749.623	1.57691
752.997	3.08037
756.372	2.54607
759.747	1.85556
763.122	0.802295
766.497	1.51459
769.871	0.16496
773.246	0.110867
776.621	1.81682
779.996	0.654778
783.371	0.030184
786.745	1.25532
790.12	0.194768
793.495	1.63939
796.87	0.737516
800.245	3.1744
803.62	1.23553
806.994	1.17989
810.369	0.661449
813.744	1.42605
817.119	1.5748
820.494	2.97288
823.869	1.44766
827.243	3.33679
830.618	0.290348
833.993	1.6537
837.368	3.20599
840.743	2.1059
844.117	0.98244
847.492	1.71331
850.867	0.826581
854.242	1.84982
857.617	2.76524
860.991	1.26035
864.366	0.996934
867.741	1.61228
871.116	1.35097
874.491	3.17657
877.866	1.84079
881.24	1.61557
884.615	2.09602
887.99	0.943
891.365	3.19746
894.74	1.70827
898.115	2.24288
901.489	1.4663
904.864	3.53774
908.239	0.909022
911.614	1.04489
914.989	1.06097
918.363	1.0629
921.738	2.17319
925.113	2.00539
928.488	0.527077
931.863	1.80511
935.237	1.71603
938.612	2.35645
941.987	2.73228
945.362	0.989684
948.737	3.45257
952.112	3.01254
955.486	2.27095
958.861	1.87227
962.236	3.47105
965.611	1.34751
968.986	0.596556
972.361	3.91364
975.735	2.83384
979.11	0.953642
982.485	1.7082
985.86	1.42104
989.235	2.10258
992.609	0.852328
995.984	0.447251
999.359	1.66939
1002.73	1.89877
1006.11	3.29818
1009.48	0.492356
1012.86	1.1683
1016.23	0.476019
1019.61	1.74476
1022.98	2.68039
1026.36	1.68232
1029.73	2.38574
1033.11	1.78801
1036.48	2.7041
1039.86	1.58813
1043.23	0.021352
1046.61	2.58073
1049.98	1.81334
1053.36	1.38796
1056.73	2.12311
1060.11	2.71559
1063.48	2.33261
1066.86	2.42917
1070.23	1.23129
1073.61	3.77741
1076.98	0.066942
1080.36	1.75843
1083.73	1.91188
1087.1	1.97862
1090.48	0.380221
1093.85	3.39337
1097.23	0.394134
1100.6	1.21751
1103.98	2.09538
1107.35	1.17959
1110.73	2.02068
1114.1	2.53709
1117.48	0.241929
1120.85	1.82231
1124.23	1.69271
1127.6	2.39513
1130.98	1.92287
1134.35	2.24057
1137.73	1.8822
1141.1	2.47376
1144.48	2.34989
1147.85	0.79342
1151.23	0.857675
1154.6	0.396184
1157.97	1.8508
1161.35	3.27841
1164.72	0.900433
1168.1	0.112726
1171.47	1.98611
1174.85	0.915972
1178.22	0.799939
1181.6	1.04192
1184.97	2.91203
1188.35	2.65872
1191.72	2.65304
1195.1	2.38706
1198.47	3.23893
1201.85	0.60131
1205.22	0.82517
1208.6	1.00868
1211.97	1.78268
1215.35	3.55135
1218.72	2.65185
1222.1	2.12599
1225.47	2.02692
1228.85	0.01398
1232.22	0.781157
1235.6	1.31784
1238.97	2.47767
1242.35	2.22566
1245.72	2.67462
1249.1	2.13887
1252.47	2.38279
1255.85	0.765363
1259.22	2.19075
1262.6	2.88741
1265.97	0.838129
1269.34	2.00305
1272.72	0.424562
1276.09	1.80063
1279.47	2.14631
1282.84	-0.361377
