Measurement: Raman, 780 nm, unoriented, Raman Data RAW
Mineral: Colinowensite
Rruff sample: R150109
Ideal chemistry: BaCu^2+^Si_2_O_6_
Locality: Synthetic
Source: Yan Chen and Shouhua Feng
Description: Purple powder
Raman shift (cm-1)	intensity
90.5957	52807.9
93.9705	62643.2
97.3453	68840.8
100.72	71298.6
104.095	73379.1
107.47	75212.5
110.845	76757.7
114.219	78083.9
117.594	79381.4
120.969	80278.9
124.344	81484.2
127.719	82562
131.094	83456.1
134.468	84896.4
137.843	85942.5
141.218	87290.3
144.593	88393
147.968	89726.5
151.342	91017.1
154.717	91916.1
158.092	93140.1
161.467	94241.3
164.842	95314
168.216	96794.1
171.591	97788.3
174.966	99017.6
178.341	100411
181.716	101612
185.09	102991
188.465	104597
191.84	105748
195.215	106928
198.59	108254
201.965	109393
205.339	110803
208.714	112260
212.089	113552
215.464	115066
218.839	116239
222.214	117542
225.588	119209
228.963	120493
232.338	122120
235.713	123613
239.088	125062
242.462	126572
245.837	128564
249.212	129935
252.587	131068
255.962	132531
259.336	134125
262.711	135493
266.086	137497
269.461	138958
272.836	140586
276.211	142481
279.585	144296
282.96	145843
286.335	147687
289.71	149060
293.085	151055
296.459	153035
299.834	154728
303.209	156614
306.584	158310
309.959	160017
313.334	161740
316.708	163623
320.083	165491
323.458	167253
326.833	169248
330.207	171043
333.582	172692
336.957	175068
340.332	177110
343.707	179223
347.082	181057
350.456	182758
353.831	184710
357.206	186858
360.581	189118
363.956	191196
367.33	193180
370.705	195610
374.08	197761
377.455	200166
380.83	202152
384.205	204712
387.579	206888
390.954	209317
394.329	211437
397.704	213487
401.079	215870
404.453	218399
407.828	220502
411.203	222866
414.578	225594
417.953	227617
421.327	230532
424.702	233663
428.077	236144
431.452	238860
434.827	241500
438.202	243741
441.576	246672
444.951	249068
448.326	252402
451.701	255184
455.076	258005
458.45	261166
461.825	263869
465.2	266600
468.575	269375
471.95	272941
475.325	274954
478.699	277759
482.074	281137
485.449	283610
488.824	286866
492.199	289565
495.573	292222
498.948	294639
502.323	297624
505.698	300835
509.073	303815
512.447	306550
515.822	310104
519.197	312897
522.572	315900
525.947	319479
529.322	322260
532.696	325042
536.071	328045
539.446	331843
542.821	334688
546.196	337874
549.57	340908
552.945	344826
556.32	348005
559.695	351881
563.07	354713
566.444	358900
569.819	363062
573.194	366054
576.569	369909
579.944	373579
583.319	376944
586.693	380307
590.068	384161
593.443	387646
596.818	391988
600.193	396073
603.567	399565
606.942	403438
610.317	406841
613.692	410846
617.067	414849
620.442	418971
623.816	422834
627.191	426609
630.566	430725
633.941	435203
637.316	439039
640.69	443125
644.065	446784
647.44	451004
650.815	455064
654.19	458718
657.564	464306
660.939	467692
664.314	471978
667.689	476867
671.064	481059
674.439	484850
677.813	489487
681.188	493678
684.563	497637
687.938	502394
691.313	507109
694.688	511347
698.062	515324
701.437	519951
704.812	525361
708.187	530375
711.562	535787
714.936	541808
718.311	546367
721.686	551164
725.061	554935
728.436	560290
731.81	565828
735.185	571637
738.56	576717
741.935	580902
745.31	585658
748.684	592529
752.059	597376
755.434	603258
758.809	607942
762.184	612568
765.559	617308
768.933	623352
772.308	630412
775.683	635851
779.058	641710
782.433	647262
785.808	652808
789.182	659317
792.557	664622
795.932	671622
799.307	678037
802.682	683841
806.056	691179
809.431	696571
812.806	701639
816.181	709345
819.556	715342
822.93	721446
826.305	728411
829.68	734090
833.055	739570
836.43	745970
839.804	752977
843.179	758744
846.554	765898
849.929	773021
853.304	778682
856.679	784086
860.053	790645
863.428	797704
866.803	803805
870.178	810129
873.553	816392
876.927	822235
880.302	829223
883.677	836432
887.052	842848
890.427	848774
893.802	857045
897.176	861714
900.551	869681
903.926	875942
907.301	882870
910.676	890054
914.05	896738
917.425	902679
920.8	910884
924.175	917683
927.55	923598
930.924	929632
934.299	937213
937.674	947065
941.049	952212
944.424	958537
947.799	965772
951.173	973016
954.548	981586
957.923	989126
961.298	997092
964.673	1.00299e+06
968.047	1.01064e+06
971.422	1.01787e+06
974.797	1.02477e+06
978.172	1.03157e+06
981.547	1.03912e+06
984.922	1.04771e+06
988.296	1.05613e+06
991.671	1.06372e+06
995.046	1.07234e+06
998.421	1.08146e+06
1001.8	1.08848e+06
1005.17	1.09717e+06
1008.54	1.1048e+06
1011.92	1.11218e+06
1015.29	1.11944e+06
1018.67	1.12741e+06
1022.04	1.13592e+06
1025.42	1.14426e+06
1028.79	1.14997e+06
1032.17	1.15832e+06
1035.54	1.16979e+06
1038.92	1.1774e+06
1042.29	1.1841e+06
1045.67	1.19178e+06
1049.04	1.2e+06
1052.42	1.20804e+06
1055.79	1.21651e+06
1059.17	1.2251e+06
1062.54	1.23455e+06
1065.92	1.24397e+06
1069.29	1.25116e+06
1072.67	1.25682e+06
1076.04	1.26548e+06
1079.42	1.27302e+06
1082.79	1.28164e+06
1086.17	1.29135e+06
1089.54	1.29975e+06
1092.92	1.30524e+06
1096.29	1.31254e+06
1099.66	1.32235e+06
1103.04	1.33007e+06
1106.41	1.34038e+06
1109.79	1.34964e+06
1113.16	1.35668e+06
1116.54	1.36422e+06
1119.91	1.37222e+06
1123.29	1.38202e+06
1126.66	1.39091e+06
1130.04	1.40052e+06
1133.41	1.41199e+06
1136.79	1.42052e+06
1140.16	1.43114e+06
1143.54	1.43935e+06
1146.91	1.44962e+06
1150.29	1.45911e+06
1153.66	1.46769e+06
1157.04	1.47673e+06
1160.41	1.48525e+06
1163.79	1.49722e+06
1167.16	1.50766e+06
1170.54	1.51696e+06
1173.91	1.52788e+06
1177.29	1.5374e+06
1180.66	1.54854e+06
1184.04	1.55714e+06
1187.41	1.5651e+06
1190.79	1.57386e+06
1194.16	1.58295e+06
1197.54	1.59391e+06
1200.91	1.60331e+06
1204.28	1.61109e+06
1207.66	1.62074e+06
1211.03	1.62903e+06
1214.41	1.63704e+06
1217.78	1.6429e+06
1221.16	1.64844e+06
1224.53	1.65912e+06
1227.91	1.67197e+06
1231.28	1.68332e+06
1234.66	1.69135e+06
1238.03	1.69754e+06
1241.41	1.70486e+06
1244.78	1.71515e+06
1248.16	1.72323e+06
1251.53	1.73669e+06
1254.91	1.748e+06
1258.28	1.75872e+06
1261.66	1.77003e+06
1265.03	1.7831e+06
1268.41	1.79368e+06
1271.78	1.80281e+06
1275.16	1.81069e+06
1278.53	1.82516e+06
1281.9	1.83748e+06
