Measurement: Raman, 785 nm, unoriented, Raman Data Processed
Mineral: Coloradoite
Rruff sample: R070326
Ideal chemistry: Hg^2+^Te^2-^
Locality: Herald Mine, Sugarloaf, Boulder County, Colorado, USA
Source: Michael Scott
Description: Grey metallic massive on quartz
Raman shift (cm-1)	intensity
136.163	0
139.055	46.0105
141.948	73.5076
144.841	64.4904
147.733	53.7767
150.626	39.8291
153.519	63.8882
156.411	65.2285
159.304	36.8258
162.197	56.7842
165.09	30.1349
167.982	31.5936
170.875	28.0287
173.768	21.4427
176.66	36.66
179.553	27.1133
182.446	11.0029
185.339	26.8663
188.231	19.519
191.124	35.0113
194.017	30.5423
196.909	13.6921
199.802	6.43631
202.695	21.3773
205.587	3.57159
208.48	3.54007
211.373	17.7176
214.266	4.32693
217.158	9.76245
220.051	5.67981
222.944	11.3324
225.836	8.96765
228.729	6.14078
231.622	2.22784
234.514	12.8303
237.407	7.23611
240.3	2.23151
243.192	17.21
246.085	10.6662
248.978	14.7739
251.871	0.354858
254.763	7.63327
257.656	11.152
260.549	2.61069
263.441	18.4165
266.334	2.09668
269.227	20.6484
272.12	20.4571
275.012	2.08322
277.905	24.8268
280.798	4.11771
283.69	25.2764
286.583	6.97861
289.476	18.8904
292.368	8.78565
295.261	4.84445
298.154	21.0937
301.046	17.1223
303.939	15.9046
306.832	4.29007
309.725	31.3193
312.617	13.6259
315.51	11.465
318.403	1.68472
321.295	20.4772
324.188	13.2237
327.081	13.4152
329.974	16.007
332.866	11.5558
335.759	21.388
338.652	12.3514
341.544	1.50961
344.437	20.5822
347.33	7.67776
350.223	16.6737
353.115	10.4153
356.008	18.9167
358.901	24.1194
361.793	21.711
364.686	4.39835
367.579	13.011
370.471	29.9662
373.364	2.7341
376.257	4.66998
379.149	22.9376
382.042	9.05939
384.935	13.5612
387.828	12.722
390.72	21.3257
393.613	20.1057
396.506	7.41501
399.398	10.8506
402.291	4.39755
405.184	4.52979
408.077	21.0813
410.969	20.9623
413.862	17.5904
416.755	5.75522
419.647	20.1609
422.54	17.3132
425.433	6.98596
428.325	8.59564
431.218	0.020599
434.111	8.17181
437.003	14.2405
439.896	15.0251
442.789	12.6115
445.682	22.0748
448.574	28.0467
451.467	25.6301
454.36	30.3904
457.252	22.4106
460.145	12.5638
463.038	16.0185
465.93	28.748
468.823	28.6981
471.716	2.59933
474.609	22.2321
477.501	10.2455
480.394	28.8104
483.287	13.8087
486.179	18.0662
489.072	3.34515
491.965	21.1092
494.858	21.7329
497.75	25.4621
500.643	21.8644
503.536	16.8659
506.428	11.3851
509.321	24.013
512.214	13.9737
515.106	24.3113
517.999	6.41214
520.892	9.70792
523.784	34.5202
526.677	16.9363
529.57	0.304382
532.463	29.2467
535.355	14.9489
538.248	14.9913
541.141	8.88983
544.033	31.904
546.926	2.74188
549.819	28.0373
552.712	11.6646
555.604	19.1187
558.497	8.62411
561.39	20.3592
564.282	9.79782
567.175	13.1479
570.068	22.5787
572.96	12.9916
575.853	6.99637
578.746	21.6025
581.639	24.0125
584.531	16.8815
587.424	17.2165
590.317	7.5275
593.209	13.112
596.102	1.35571
598.995	24.8696
601.888	23.0196
604.78	9.1445
607.673	5.29678
610.566	13.5052
613.458	9.42377
616.351	6.44934
619.244	1.0419
622.136	15.2749
625.029	21.96
627.922	11.9004
630.814	18.6995
633.707	21.111
636.6	23.1577
639.493	23.5756
642.385	14.6378
645.278	8.04547
648.171	1.19
651.063	12.291
653.956	17.7752
656.849	24.0156
659.741	3.06003
662.634	12.0015
665.527	10.8426
668.42	19.5389
671.312	18.616
674.205	13.0668
677.098	0.690918
679.99	16.8591
682.883	5.81296
685.776	4.58157
688.668	11.9413
691.561	8.59906
694.454	14.4231
697.347	9.8035
700.239	22.8102
703.132	24.4051
706.025	27.5465
708.917	21.4488
711.81	14.6934
714.703	16.7778
717.596	29.6303
720.488	21.5391
723.381	24.1037
726.274	23.2842
729.166	13.1288
732.059	27.559
734.952	22.6055
737.844	20.4586
740.737	15.659
743.63	15.6675
746.523	26.9287
749.415	23.1007
752.308	10.3102
755.201	21.6784
758.093	22.0939
760.986	40.6946
763.879	9.19647
766.771	17.7752
769.664	13.5529
772.557	16.495
775.45	19.6673
778.342	8.27481
781.235	10.2767
784.128	24.0308
787.02	20.8002
789.913	29.1267
792.806	0.800262
795.698	3.22781
798.591	15.5317
801.484	9.95898
804.377	1.23447
807.269	18.4468
810.162	5.91202
813.055	33.9661
815.947	4.10245
818.84	6.45682
821.733	15.3383
824.625	19.9561
827.518	7.16074
830.411	33.2998
833.304	28.9282
836.196	25.6141
839.089	19.0067
841.982	34.1087
844.874	21.0512
847.767	9.88266
850.66	6.46643
853.553	12.5741
856.445	6.60877
859.338	11.0201
862.231	3.05624
865.123	25.0643
868.016	14.9367
870.909	12.6729
873.801	27.0367
876.694	12.3457
879.587	1.42139
882.48	19.3313
885.372	5.78662
888.265	9.61621
891.158	3.33627
894.05	21.6548
896.943	5.52884
899.836	1.12302
902.729	29.2001
905.621	15.0276
908.514	19.127
911.407	18.2452
914.299	7.99854
917.192	23.7915
920.085	19.755
922.977	4.41937
925.87	14.7283
928.763	19.9672
931.655	24.1632
934.548	6.77646
937.441	9.98807
940.334	11.7179
943.226	14.0981
946.119	21.9253
949.012	2.00653
951.904	17.5209
954.797	20.4753
957.69	17.4601
960.582	9.87201
963.475	5.86591
966.368	20.7533
969.261	12.7707
972.153	6.63611
975.046	1.32254
977.939	6.81867
980.831	1.94092
983.724	21.2745
986.617	20.3076
989.51	1.54965
992.402	16.7652
995.295	23.9861
998.188	26.9901
1001.08	14.3961
1003.97	7.25903
1006.87	28.5083
1009.76	12.8042
1012.65	13.9031
1015.54	12.3786
1018.44	10.4481
1021.33	0.944183
1024.22	19.6939
1027.12	10.7685
1030.01	13.714
1032.9	19.3905
1035.79	28.6841
1038.68	21.6799
1041.58	30.7011
1044.47	18.4102
1047.36	10.7169
1050.26	5.32819
1053.15	24.9582
1056.04	31.9516
1058.93	13.9231
1061.83	6.48346
1064.72	25.0166
1067.61	17.2209
1070.51	24.0361
1073.4	27.2181
1076.29	20.0414
1079.18	17.4651
1082.08	20.5067
1084.97	11.2374
1087.86	5.68646
1090.75	18.0474
1093.65	9.65576
1096.54	6.82352
1099.43	23.9676
1102.33	22.9035
1105.22	10.0539
1108.11	9.3645
1111	2.65973
1113.9	21.8476
1116.79	22.5208
1119.68	19.8492
1122.57	23.2853
1125.47	22.1859
1128.36	10.8889
1131.25	4.63532
1134.14	12.5264
1137.04	14.4351
1139.93	8.85428
1142.82	0.874695
1145.71	15.6489
1148.61	12.013
1151.5	12.1994
1154.39	10.6999
1157.29	18.1267
1160.18	8.048
1163.07	12.5861
1165.96	19.3945
1168.86	5.50647
1171.75	7.34802
1174.64	11.4794
1177.54	5.03531
1180.43	13.2521
1183.32	17.1654
1186.21	9.75757
1189.11	16.7003
1192	25.2975
1194.89	10.9047
1197.78	4.46066
1200.68	0.047119
1203.57	21.7677
1206.46	9.25787
1209.36	8.52744
1212.25	19.2551
1215.14	8.89435
1218.03	19.6505
1220.93	22.091
1223.82	8.88055
1226.71	9.70877
1229.6	15.5166
1232.5	9.94171
1235.39	18.7432
1238.28	17.5694
1241.17	17.8951
1244.07	9.43518
1246.96	17.3871
1249.85	18.1553
1252.74	3.9491
1255.64	20.5578
1258.53	15.4421
1261.42	34.062
1264.32	4.28107
1267.21	6.60718
1270.1	30.3596
1272.99	18.3966
1275.89	5.26086
1278.78	14.1624
1281.67	4.80142
1284.57	8.87399
1287.46	5.03534
1290.35	11.9092
