Measurement: Raman, 532 nm, unoriented, Raman Data Processed
Mineral: Coloradoite
Rruff sample: R070326
Ideal chemistry: Hg^2+^Te^2-^
Locality: Herald Mine, Sugarloaf, Boulder County, Colorado, USA
Source: Michael Scott
Description: Grey metallic massive on quartz
Raman shift (cm-1)	intensity
133.752	0
137.127	62.7081
140.502	177.416
143.876	170.134
147.251	99.6389
150.626	84.1016
154.001	89.4522
157.376	106.05
160.75	87.4303
164.125	73.9935
167.5	53.8041
170.875	62.7423
174.25	73.8151
177.625	34.2157
180.999	41.0637
184.374	32.8422
187.749	34.1563
191.124	31.6851
194.499	16.0178
197.874	5.1922
201.248	6.51935
204.623	27.1317
207.998	8.99945
211.373	13.5439
214.748	11.2113
218.122	12.9743
221.497	5.79266
224.872	13.3573
228.247	22.5749
231.622	9.82855
234.996	11.0208
238.371	7.43732
241.746	3.32367
245.121	15.8254
248.496	34.6904
251.871	9.21906
255.245	15.1802
258.62	24.0139
261.995	13.4889
265.37	8.96924
268.745	31.5545
272.12	41.0524
275.494	4.52844
278.869	37.2223
282.244	24.1315
285.619	43.2677
288.994	24.2834
292.368	7.71143
295.743	20.595
299.118	12.4094
302.493	28.0936
305.868	12.5987
309.243	37.6405
312.617	23.2983
315.992	32.6326
319.367	11.4362
322.742	14.4768
326.117	26.7321
329.491	10.5525
332.866	23.2481
336.241	19.3561
339.616	29.9618
342.991	8.62341
346.365	16.8283
349.74	12.6144
353.115	32.058
356.49	25.1158
359.865	20.5065
363.24	16.0397
366.614	20.4043
369.989	26.8717
373.364	14.7618
376.739	0.90741
380.114	16.6043
383.488	1.10803
386.863	20.7097
390.238	24.7509
393.613	20.8812
396.988	37.8622
400.363	11.2993
403.737	12.7227
407.112	1.39514
410.487	16.646
413.862	27.5226
417.237	11.6907
420.611	21.7729
423.986	17.0894
427.361	27.1771
430.736	14.5076
434.111	16.2372
437.486	32.3175
440.86	3.06006
444.235	11.6443
447.61	18.7985
450.985	15.3763
454.36	27.6904
457.735	19.84
461.109	26.9814
464.484	14.0353
467.859	8.77551
471.234	19.4812
474.609	23.3948
477.983	18.8989
481.358	23.2005
484.733	18.2905
488.108	29.9525
491.483	31.6154
494.858	21.5185
498.232	32.8873
501.607	11.5359
504.982	28.6664
508.357	21.6856
511.732	29.3519
515.106	15.079
518.481	18.2597
521.856	10.6082
525.231	15.0249
528.606	7.5387
531.981	27.1436
535.355	13.9621
538.73	2.24817
542.105	6.2066
545.48	21.9144
548.855	8.79584
552.229	9.3493
555.604	5.31519
558.979	20.1105
562.354	3.68408
565.729	3.08264
569.104	25.8729
572.478	15.3059
575.853	3.24292
579.228	8.79895
582.603	30.7093
585.978	39.6229
589.352	16.5613
592.727	8.04492
596.102	2.80621
599.477	13.5593
602.852	1.28021
606.227	10.7485
609.601	5.21051
612.976	20.4315
616.351	23.3622
619.726	5.98492
623.101	23.3168
626.476	6.87573
629.85	4.52997
633.225	12.3837
636.6	17.8808
639.975	22.2166
643.35	24.3854
646.724	18.6985
650.099	7.7345
653.474	26.3637
656.849	11.943
660.224	18.8964
663.598	37.94
666.973	26.6503
670.348	11.7617
673.723	21.3004
677.098	3.5105
680.472	33.0576
683.847	26.6789
687.222	5.13812
690.597	16.788
693.972	20.1678
697.347	27.1094
700.721	40.2947
704.096	33.0883
707.471	21.3085
710.846	21.3923
714.221	47.5225
717.596	12.5178
720.97	35.2083
724.345	35.9647
727.72	0.492554
731.095	50.472
734.47	38.1691
737.844	38.7474
741.219	27.2377
744.594	30.9729
747.969	27.6067
751.344	28.1279
754.719	40.4723
758.093	18.2029
761.468	33.222
764.843	21.8027
768.218	20.9406
771.593	10.9955
774.967	14.7968
778.342	6.50305
781.717	15.9056
785.092	29.728
788.467	43.9828
791.842	11.055
795.216	6.19782
798.591	28.9361
801.966	10.2897
805.341	7.54895
808.716	8.1264
812.091	9.89691
815.465	41.5491
818.84	14.1848
822.215	24.9377
825.59	24.6149
828.965	51.8057
832.339	68.3987
835.714	63.5328
839.089	58.8091
842.464	42.8869
845.839	29.7662
849.213	29.8083
852.588	9.16223
855.963	23.954
859.338	17.9704
862.713	8.62958
866.087	18.978
869.462	24.8616
872.837	20.7735
876.212	9.40576
879.587	11.9784
882.962	17.5427
886.337	25.8813
889.711	20.264
893.086	8.84253
896.461	8.34283
899.836	24.0582
903.211	23.6786
906.585	34.6181
909.96	19.3667
913.335	13.1611
916.71	32.5289
920.085	21.2297
923.46	10.7553
926.834	9.4848
930.209	14.8016
933.584	8.98114
936.959	30.864
940.334	30.117
943.708	10.7006
947.083	11.3344
950.458	15.7655
953.833	23.7862
957.208	28.9416
960.582	9.03357
963.957	15.8257
967.332	9.87122
970.707	27.4652
974.082	8.00629
977.457	27.5889
980.831	2.2879
984.206	12.1857
987.581	30.5406
990.956	10.1037
994.331	33.7977
997.705	24.3185
1001.08	3.73285
1004.46	6.28455
1007.83	8.68762
1011.21	7.2196
1014.58	7.14984
1017.95	26.1285
1021.33	16.6436
1024.7	20.877
1028.08	15.1957
1031.45	11.1408
1034.83	35.804
1038.2	19.532
1041.58	18.7776
1044.95	39.3076
1048.33	8.54846
1051.7	3.91968
1055.08	9.85156
1058.45	15.6512
1061.83	19.5406
1065.2	16.842
1068.58	13.4425
1071.95	15.1187
1075.33	21.7048
1078.7	24.4897
1082.08	23.5234
1085.45	21.9371
1088.83	10.6035
1092.2	16.8512
1095.58	15.5038
1098.95	17.578
1102.33	13.1274
1105.7	40.9888
1109.07	6.89935
1112.45	33.2957
1115.82	22.6542
1119.2	27.2246
1122.57	17.6776
1125.95	31.6096
1129.32	28.6209
1132.7	2.13763
1136.07	2.99786
1139.45	21.582
1142.82	25.1888
1146.2	23.0479
1149.57	30.9649
1152.95	7.70172
1156.32	19.5715
1159.7	1.83527
1163.07	12.5154
1166.45	26.1359
1169.82	31.6028
1173.2	24.1345
1176.57	22.6329
1179.95	19.9582
1183.32	22.7076
1186.69	23.7222
1190.07	28.6489
1193.44	22.0239
1196.82	11.6124
1200.19	13.7457
1203.57	26.1019
1206.94	5.41034
1210.32	26.5088
1213.69	26.2881
1217.07	14.4883
1220.44	2.16559
1223.82	35.3183
1227.19	32.6214
1230.57	31.3814
1233.94	25.7128
1237.32	12.0105
1240.69	12.9405
1244.07	8.48706
1247.44	34.0422
1250.82	24.582
1254.19	6.62824
1257.57	17.8565
1260.94	12.4252
1264.32	1.40686
1267.69	38.6123
1271.07	32.013
1274.44	28.9503
1277.82	31.0422
1281.19	17.8011
1284.57	18.7184
1287.94	6.2262
1291.32	8.09277
1294.69	19.0783
1298.06	30.3229
1301.44	13.9073
1304.81	32.6665
1308.19	15.793
