Measurement: Raman, 785 nm, unoriented, Raman Data Processed
Mineral: Columbite-(Mn)
Rruff sample: R040083
Ideal chemistry: Mn^2+^Nb^5+^_2_O_6_
Locality: Mina Miramica, Santa Cruz, Bolivia
Source: University of Arizona Mineral Museum
Description: Fragment consisting of multiple phases as shown by both X-ray diffraction and microprobe.
Measured chemistry: Light bands: (Mn^2+^_0.78_Fe^2+^_0.21_Ti_0.01_)(Nb_0.74_Ta_0.25_Ti_0.01_)_2_O_6_; Dark bands:(Mn^2+^_0.73_Fe^2+^_0.26_Ti_0.01_)(Nb_0.86_Ta_0.13_Ti_0.01_)_2_O_6_
Raman shift (cm-1)	intensity
153.931	0
156.824	72.6231
159.717	50.4863
162.609	239.404
165.502	371.434
168.395	357.711
171.287	193.402
174.18	299.275
177.073	311.969
179.965	526.771
182.858	1005.95
185.751	1169.65
188.644	1656.13
191.536	1835.79
194.429	2165.78
197.322	2532.72
200.214	2765
203.107	3178.86
206	3220.28
208.893	3357.48
211.785	3540.76
214.678	3503.78
217.571	3559.66
220.463	3489.15
223.356	3303.31
226.249	3128.98
229.141	2985.92
232.034	2678.54
234.927	2622.47
237.82	2557.89
240.712	2465.12
243.605	2294.73
246.498	2054.23
249.39	1852.14
252.283	1793.21
255.176	1694.91
258.068	1668.91
260.961	1480.86
263.854	1356.41
266.747	1178.8
269.639	870.398
272.532	798.047
275.425	822.506
278.317	725.314
281.21	576.678
284.103	490.094
286.995	234.002
289.888	88.0566
292.781	38.7559
295.673	70.6406
298.566	196.34
301.459	112.107
304.352	112.514
307.244	57.6816
310.137	15.5254
313.03	18.9551
315.922	140.109
318.815	240.525
321.708	280.609
324.601	722.631
327.493	789.75
330.386	1054.55
333.279	1121.89
336.171	1257.25
339.064	1478.54
341.957	1748.63
344.849	1956.46
347.742	2255.65
350.635	2445.25
353.527	2641.34
356.42	3026.31
359.313	3419.07
362.206	3582.82
365.098	3804.77
367.991	4200.98
370.884	4430.62
373.776	4730.12
376.669	4889.75
379.562	4894.81
382.454	4824.57
385.347	4690.88
388.24	4485.88
391.133	4333.61
394.025	4076.86
396.918	3768.91
399.811	3487.37
402.703	3128.62
405.596	2760.9
408.489	2537.63
411.382	2123.1
414.274	1929.38
417.167	1566
420.06	1257.44
422.952	1126.36
425.845	859.223
428.738	582.91
431.63	446.223
434.523	288.603
437.416	308.877
440.308	137.662
443.201	19.5371
446.094	43.5156
448.987	51.3086
451.879	97.1728
454.772	60.5137
457.665	81.3438
460.557	28.708
463.45	9.40723
466.343	63.5791
469.236	110.13
472.128	221.817
475.021	201.225
477.914	248.788
480.806	215.629
483.699	257.628
486.592	302.871
489.484	399.709
492.377	284.513
495.27	325.056
498.163	339.955
501.055	304.484
503.948	348.129
506.841	214.165
509.733	310.69
512.626	181.631
515.519	171.63
518.411	56.4863
521.304	116.269
524.197	66.1504
527.09	50.458
529.982	158.038
532.875	96.0801
535.768	130.107
538.66	139.273
541.553	0.967773
544.446	37.7617
547.338	10.8521
550.231	2.88135
553.124	3.5542
556.016	16.3154
558.909	18.0337
561.802	18.6006
564.695	31.5503
567.587	56.2212
570.48	108.81
573.373	69.125
576.265	132.235
579.158	104.511
582.051	128.065
584.943	147.159
587.836	197.595
590.729	116.54
593.621	170.878
596.514	210.819
599.407	174.13
602.3	173.921
605.192	157.721
608.085	184.826
610.978	175.658
613.87	147.625
616.763	151.939
619.656	122.38
622.548	99.9404
625.441	93.5
628.334	117.081
631.227	62.9514
634.119	38.9346
637.012	55.654
639.905	33.0112
642.797	13.8337
645.69	13.4136
648.583	45.2852
651.476	10.8005
654.368	22.5635
657.261	12.2034
660.154	14.2344
663.046	14.9541
665.939	15.1726
668.832	44.116
671.724	8.02685
674.617	1.80371
677.51	5.93091
680.403	32.6304
683.295	8.84595
686.188	22.3352
689.081	48.0147
691.973	39.8682
694.866	19.0278
697.759	24.1799
700.651	9.78833
703.544	8.18701
706.437	30.875
709.33	6.52808
712.222	0.369141
715.115	46.5185
718.008	22.2543
720.9	46.0092
723.793	5.00659
726.686	6.84582
729.578	8.36121
732.471	17.2479
735.364	26.5443
738.256	14.0508
741.149	46.4772
744.042	28.1688
746.935	51.7253
749.827	55.0017
752.72	77.4819
755.613	41.304
758.505	61.8159
761.398	54.2245
764.291	63.4055
767.183	39.7051
770.076	41.989
772.969	73.844
775.862	53.8107
778.754	43.219
781.647	73.325
784.54	54.6902
787.432	57.1976
790.325	37.3855
793.218	23.1226
796.111	38.5223
799.003	10.6069
801.896	12.7429
804.789	11.4941
807.681	35.3546
810.574	14.712
813.467	5.77637
816.359	34.3494
819.252	37.1107
822.145	59.1135
825.038	47.4203
827.93	79.5234
830.823	69.1141
833.716	97.0406
836.608	98.2627
839.501	120.94
842.394	153.823
845.286	179.329
848.179	181.339
851.072	191.329
853.965	263.646
856.857	266.081
859.75	317.87
862.643	387.074
865.535	465.163
868.428	602.659
871.321	705.963
874.213	818.122
877.106	861.595
879.999	773.051
882.891	616.054
885.784	417.496
888.677	269.04
891.57	216.159
894.462	201.519
897.355	212.039
900.248	240.22
903.14	224.833
906.033	186.363
908.926	91.3185
911.818	62.3339
914.711	14.5018
917.604	16.0379
920.497	18.2387
923.389	15.0137
926.282	6.78162
929.175	2.90338
932.067	10.8289
934.96	5.53558
937.853	2.9209
940.745	8.80389
943.638	7.53021
946.531	10.1575
949.424	4.76666
952.316	17.7911
955.209	15.314
958.102	10.6739
960.994	7.04303
963.887	10.244
966.78	12.0005
969.673	13.8468
972.565	21.8968
975.458	34.4376
978.351	38.8021
981.243	36.7957
984.136	26.2578
987.029	20.0907
989.921	15.603
992.814	21.8938
995.707	29.4378
998.6	19.6406
1001.49	17.6506
1004.38	21.5148
1007.28	24.3648
1010.17	9.41016
1013.06	36.3138
1015.96	24.678
1018.85	10.3567
1021.74	3.96289
1024.63	6.84094
1027.53	8.59473
1030.42	13.8845
1033.31	8.50562
1036.2	31.9012
1039.1	4.42676
1041.99	8.34198
1044.88	15.6318
1047.78	10.4786
1050.67	11.4266
1053.56	0.463989
1056.45	15.0925
1059.35	5.31201
1062.24	6.85962
1065.13	20.711
1068.02	20.0477
1070.92	16.0133
1073.81	21.536
1076.7	21.6325
1079.6	9.45328
1082.49	26.774
1085.38	7.69369
1088.27	35.1208
1091.17	18.8804
1094.06	22.3586
1096.95	24.6333
1099.84	16.4305
1102.74	36.443
1105.63	41.4228
1108.52	20.7769
1111.41	16.6235
1114.31	41.6118
1117.2	40.2673
1120.09	34.1185
1122.99	32.3572
1125.88	44.0388
1128.77	27.5335
1131.66	44.5598
1134.56	55.8432
1137.45	40.4578
1140.34	41.6527
1143.23	46.02
1146.13	50.3992
1149.02	51.6208
1151.91	68.2312
1154.81	53.6191
1157.7	58.6392
1160.59	69.138
1163.48	57.0317
1166.38	71.5314
1169.27	77.6743
1172.16	68.8395
1175.05	70.2074
1177.95	65.6063
1180.84	72.6884
1183.73	65.3443
1186.62	68.8136
1189.52	48.3041
1192.41	56.5247
1195.3	54.3363
1198.2	36.1594
1201.09	39.5615
1203.98	1.8327
1206.87	8.50348
1209.77	4.99957
1212.66	1.78333
1215.55	5.06775
1218.44	11.1329
1221.34	14.4375
1224.23	50.6547
1227.12	54.0454
1230.02	57.2238
1232.91	49.4751
1235.8	72.8359
1238.69	57.4145
1241.59	78.6392
1244.48	84.387
1247.37	64.608
1250.26	60.228
1253.16	40.5237
1256.05	18.7862
1258.94	31.6758
1261.84	21.9852
1264.73	36.7884
1267.62	15.335
1270.51	6.23779
