Measurement: Raman, 532 nm, unoriented, Raman Data Processed
Mineral: Columbite-(Mn)
Rruff sample: R040083
Ideal chemistry: Mn^2+^Nb^5+^_2_O_6_
Locality: Mina Miramica, Santa Cruz, Bolivia
Source: University of Arizona Mineral Museum
Description: Fragment consisting of multiple phases as shown by both X-ray diffraction and microprobe.
Measured chemistry: Light bands: (Mn^2+^_0.78_Fe^2+^_0.21_Ti_0.01_)(Nb_0.74_Ta_0.25_Ti_0.01_)_2_O_6_; Dark bands:(Mn^2+^_0.73_Fe^2+^_0.26_Ti_0.01_)(Nb_0.86_Ta_0.13_Ti_0.01_)_2_O_6_
Raman shift (cm-1)	intensity
129.761	0
133.135	165.949
136.51	9.85938
139.885	138.024
143.26	129.503
146.635	195.845
150.009	162.948
153.384	139.615
156.759	219.183
160.134	249.664
163.509	304.191
166.883	209.852
170.258	268.988
173.633	175.726
177.008	66.2852
180.383	33.9482
183.757	39.2978
187.132	46.831
190.507	63.7578
193.882	20.498
197.257	108.995
200.632	185.277
204.006	244.622
207.381	251.48
210.756	274.773
214.131	372.367
217.506	325.239
220.881	362.21
224.255	372.416
227.63	465.779
231.005	513.629
234.38	538.439
237.755	579.088
241.129	517.81
244.504	498.109
247.879	409.421
251.254	478.314
254.629	544.239
258.003	550.003
261.378	600.954
264.753	573.449
268.128	628.657
271.503	650.754
274.877	712.314
278.252	679.071
281.627	765.382
285.002	763.437
288.377	798.032
291.752	678.328
295.126	691.114
298.501	697.717
301.876	610.028
305.251	650.088
308.626	564.281
312	529.732
315.375	524.596
318.75	444.359
322.125	528.098
325.5	491.625
328.875	440.837
332.249	381.809
335.624	366.534
338.999	380.514
342.374	389.104
345.749	358.875
349.123	342.345
352.498	183.615
355.873	139.417
359.248	106.097
362.623	69.3272
365.998	13.3906
369.372	52.5303
372.747	19.2734
376.122	118.4
379.497	122.706
382.872	110.321
386.246	110.299
389.621	279.812
392.996	243.574
396.371	272.492
399.746	24.8184
403.12	434.941
406.495	1335.86
409.87	2603.5
413.245	4265.51
416.62	5831.55
419.995	6789.69
423.369	6698.06
426.744	5888.38
430.119	4987.27
433.494	4842.33
436.869	5242.01
440.243	6345.16
443.618	8475.31
446.993	11797.8
450.368	16554.7
453.743	21694.9
457.118	25470.5
460.492	26324.4
463.867	23471.1
467.242	19027.9
470.617	15469.4
473.992	13659.1
477.366	12951
480.741	12506
484.116	11997.9
487.491	11854.1
490.866	12088.3
494.24	12554.6
497.615	12393.6
500.99	11872.3
504.365	11383.1
507.74	11121.4
511.115	11301.4
514.489	11774.1
517.864	12120
521.239	11175.4
524.614	9433.44
527.989	7285.01
531.364	5309.34
534.738	3808.29
538.113	2594.9
541.488	1679.7
544.863	899.074
548.237	426.049
551.612	150.572
554.987	91.3535
558.362	207.012
561.737	437.863
565.112	378.887
568.486	254.193
571.861	120.629
575.236	219.791
578.611	542.037
581.986	994.227
585.361	1621.94
588.735	2521.25
592.11	3561.34
595.485	4868.84
598.86	6295.98
602.235	7665.81
605.609	9158.04
608.984	10287.2
612.359	10936.9
615.734	10994.3
619.109	10381.5
622.484	9066.6
625.858	7664.99
629.233	6297.02
632.608	4949.31
635.983	3739.13
639.357	2976
642.732	2615.19
646.107	2639.97
649.482	2770.17
652.857	2826.13
656.232	2950.74
659.606	2619.53
662.981	2211.38
666.356	1654.65
669.731	1106.55
673.106	726.508
676.481	345.359
679.855	190.027
683.23	184.459
686.605	192.75
689.98	117.106
693.355	240.215
696.729	36.6445
700.104	63.1309
703.479	59.8984
706.854	228.815
710.229	318.736
713.604	787.316
716.978	1110.66
720.353	1662.27
723.728	2401.07
727.103	2946.61
730.478	3337.37
733.852	3822.09
737.227	4220
740.602	4420.03
743.977	4616.76
747.352	4854.86
750.726	4822.85
754.101	4766.31
757.476	4721.99
760.851	4896.17
764.226	5458.12
767.601	5990.02
770.975	6689.3
774.35	7603.35
777.725	8811.94
781.1	10037.9
784.475	10757.2
787.849	11875
791.224	12846.5
794.599	13593.9
797.974	13757.7
801.349	13716.9
804.723	13419.4
808.098	12573.4
811.473	11271.5
814.848	9827.73
818.223	8307.46
821.598	7271.99
824.972	6142.7
828.347	4966.16
831.722	3776.6
835.097	2682.01
838.472	1880.17
841.846	1183.6
845.221	622.32
848.596	145.275
851.971	197.852
855.346	212.713
858.721	203.81
862.095	170.652
865.47	18.8682
868.845	62.0996
872.22	261.535
875.595	382.554
878.97	319.123
882.344	157.061
885.719	20.8467
889.094	23.3037
892.469	77.1406
895.843	361.637
899.218	591.938
902.593	713.886
905.968	543.956
909.343	263.635
912.718	129.889
916.092	68.0596
919.467	11.0898
922.842	49.749
926.217	171.393
929.592	141.497
932.966	168.453
936.341	197.843
939.716	290.815
943.091	344.785
946.466	370.831
949.841	343
953.215	335.91
956.59	397.128
959.965	421.487
963.34	458.708
966.715	507.198
970.09	516.253
973.464	508.628
976.839	435.134
980.214	440.883
983.589	447.695
986.964	404.479
990.338	454.757
993.713	434.635
997.088	376.004
1000.46	316.122
1003.84	303.588
1007.21	229.822
1010.59	242.345
1013.96	264.696
1017.34	160.752
1020.71	173.443
1024.09	174.476
1027.46	130.763
1030.84	123.379
1034.21	103.619
1037.59	90.6694
1040.96	68.2246
1044.34	98.8005
1047.71	119.466
1051.09	43.4739
1054.46	75.4944
1057.84	38.2942
1061.21	30.3953
1064.58	59.7063
1067.96	13.1865
1071.33	18.689
1074.71	30.2918
1078.08	9.15894
1081.46	6.21387
1084.83	7.41968
1088.21	31.98
1091.58	3.96924
1094.96	48.353
1098.33	16.4346
1101.71	25.3459
1105.08	26.4004
1108.46	5.64185
1111.83	21.6826
1115.21	34.5085
1118.58	29.5635
1121.96	16.9126
1125.33	53.3386
1128.71	42.137
1132.08	51.104
1135.45	40.5444
1138.83	77.3359
1142.2	79.8538
1145.58	75.6509
1148.95	49.8154
1152.33	74.8823
1155.7	30.0828
1159.08	36.5964
1162.45	43.4912
1165.83	50.4431
1169.2	47.919
1172.58	46.9719
1175.95	40.2544
1179.33	7.1665
1182.7	13.8286
1186.08	42.5664
1189.45	21.8566
1192.83	28.8435
1196.2	46.7905
1199.58	15.0593
1202.95	13.2206
1206.33	23.7903
1209.7	46.6298
1213.08	21.785
1216.45	28.4877
1219.83	38.9524
1223.2	27.5727
1226.58	41.5958
1229.95	32.853
1233.33	29.0263
1236.7	14.1476
1240.08	75.1591
1243.45	2.17737
1246.82	60.8152
1250.2	67.5824
1253.57	34.2293
1256.95	25.8625
1260.32	29.3556
1263.7	21.9104
1267.07	16.9069
1270.45	37.4526
1273.82	57.9163
1277.2	13.068
1280.57	0.480347
1283.95	25.1977
1287.32	15.1548
1290.7	28.6475
1294.07	21.5597
1297.45	0
