Measurement: Raman, 785 nm, unoriented, Raman Data Processed
Mineral: Congolite
Rruff sample: R070149
Ideal chemistry: Fe^2+^_3_B_7_O_13_Cl
Locality: Lower Saxony, Germany
Source: James Shigley
Description: Light brown pseudocubic crystal
Measured chemistry: light core: (Fe^2+^_2.32_Mg_0.52_Mn_0.16_)_Σ=3_B_7_O_13_Cl_1.00_ ; gray rim: (Fe^2+^_2.16_Mg_0.77_Mn_0.17_)_Σ=3_B_7_O_13_Cl_1.00_ ; B estimated by difference and stoichiometry
Raman shift (cm-1)	intensity
174.343	0
177.235	3.61328
180.128	0.802734
183.021	146.285
185.913	73.3769
188.806	329.623
191.699	542.236
194.591	695.092
197.484	867.16
200.377	1009.92
203.27	999.094
206.162	894.453
209.055	840.186
211.948	615.689
214.84	605.119
217.733	888.271
220.626	946.238
223.518	1134.92
226.411	1003.53
229.304	863.289
232.196	821.396
235.089	677.867
237.982	796.625
240.875	854.664
243.767	935.412
246.66	775.697
249.553	609.648
252.445	556.238
255.338	480.289
258.231	542.619
261.123	549.752
264.016	701.33
266.909	582.654
269.802	484.932
272.694	436.184
275.587	401.373
278.48	210.408
281.372	360.004
284.265	339.891
287.158	542.732
290.05	373.363
292.943	268.826
295.836	176.809
298.729	171.111
301.621	168.473
304.514	196.619
307.407	302.695
310.299	233.572
313.192	213.652
316.085	66.4062
318.978	106.668
321.87	14.9531
324.763	30.1152
327.656	159.658
330.548	22.623
333.441	144.793
336.334	25.8516
339.226	35.4531
342.119	12.4004
345.012	11.0996
347.904	109.117
350.797	115.117
353.69	107.346
356.583	71.0332
359.475	21.0469
362.368	4.57812
365.261	42.2852
368.153	109.783
371.046	195.158
373.939	204.033
376.832	359.953
379.724	249.215
382.617	208.768
385.51	51.8242
388.402	66.2676
391.295	113.186
394.188	134.254
397.08	189.268
399.973	42.4902
402.866	104.647
405.759	101.539
408.651	95.7129
411.544	10.6543
414.437	5.66992
417.329	111.723
420.222	64.3555
423.115	280.326
426.007	122.49
428.9	56.2129
431.793	85.6797
434.685	111.076
437.578	169.631
440.471	123.576
443.364	200.098
446.256	172.797
449.149	44.5898
452.042	54.4961
454.934	227.199
457.827	88.8887
460.72	92.3125
463.613	150.287
466.505	169.193
469.398	141.106
472.291	173.467
475.183	127.506
478.076	1.71094
480.969	23.0234
483.861	172.418
486.754	50.5527
489.647	86.8809
492.539	178.482
495.432	188.635
498.325	49.0156
501.218	91.4336
504.11	42.2031
507.003	105.256
509.896	164.951
512.788	268.207
515.681	233.074
518.574	182.348
521.466	89.4648
524.359	147.293
527.252	160.289
530.145	152.82
533.037	104.697
535.93	64.6777
538.823	160.398
541.715	40.3145
544.608	72.166
547.501	24.4062
550.394	144.023
553.286	43.0254
556.179	21.4277
559.072	183.301
561.964	156.461
564.857	94.8106
567.75	37.8223
570.642	2.13477
573.535	32.8457
576.428	37.8027
579.321	9.28711
582.213	60.5254
585.106	128.996
587.999	146.486
590.891	36.3945
593.784	10.7871
596.677	1.30664
599.569	54.8945
602.462	2.75586
605.355	156.496
608.247	185.315
611.14	89.332
614.033	79.166
616.926	115.33
619.818	132.34
622.711	167.572
625.604	156.152
628.496	166.191
631.389	159.127
634.282	254.553
637.174	234.834
640.067	128.894
642.96	228.31
645.853	289.256
648.745	176.44
651.638	96.9902
654.531	116.353
657.423	123.508
660.316	131.69
663.209	251.486
666.101	266.752
668.994	179.09
671.887	161.898
674.779	189.59
677.672	46.457
680.565	111.062
683.458	91.8477
686.35	69.207
689.243	3.75977
692.136	21.0078
695.028	46.3184
697.921	143.109
700.814	40.2656
703.707	90.5195
706.599	91.9551
709.492	58.2695
712.385	56.334
715.277	69.6914
718.17	68.9951
721.063	171.619
723.955	53.4482
726.848	164.876
729.741	129.017
732.634	148.817
735.526	142.446
738.419	63.042
741.312	70.3945
744.204	96.8906
747.097	105.029
749.99	45.5264
752.882	124.99
755.775	83.2061
758.668	21.3623
761.561	140.815
764.453	49.3223
767.346	0.62207
770.239	125.053
773.131	29.4697
776.024	188.523
778.917	50.4248
781.809	106.247
784.702	7.50684
787.595	221.894
790.487	94.6631
793.38	56.5293
796.273	15.4287
799.166	122.761
802.058	1.68359
804.951	95.6465
807.844	19.1377
810.736	102.772
813.629	65.1543
816.522	118.282
819.415	65.3174
822.307	139.977
825.2	79.7178
828.093	27.0137
830.985	48.7978
833.878	58.0049
836.771	3.82519
839.663	106.991
842.556	103.309
845.449	70.0693
848.342	78.9902
851.234	46.3291
854.127	67.6943
857.02	122.519
859.912	11.8037
862.805	67.0674
865.698	83.7373
868.591	88.9805
871.483	53.3887
874.376	6.51758
877.269	88.6748
880.161	53.0068
883.054	59.417
885.947	7.66699
888.839	41.165
891.732	53.6895
894.625	4.14844
897.518	58.7129
900.41	14.2461
903.303	6.60938
906.196	28.2988
909.088	9.54102
911.981	7.67383
914.874	101.132
917.766	71.2197
920.659	104.069
923.552	86.708
926.444	33.4658
929.337	30.248
932.23	44.2461
935.122	85.8535
938.015	39.5166
940.908	50.2197
943.801	19.2285
946.693	38.5137
949.586	39.3018
952.479	3.16504
955.371	122.508
958.264	47.501
961.157	134.627
964.049	83.583
966.942	46.2373
969.835	15.4815
972.728	16.1855
975.62	27.3447
978.513	91.3975
981.406	145.953
984.298	97.7871
987.191	72.4346
990.084	66.9678
992.976	15.9736
995.869	130.867
998.762	8.03418
1001.65	48.4551
1004.55	2.61621
1007.44	56.3193
1010.33	8.81738
1013.23	76.9121
1016.12	116.669
1019.01	36.7617
1021.9	10.2871
1024.8	31.9932
1027.69	36.8477
1030.58	18.8887
1033.47	56.0967
1036.37	117.431
1039.26	103.774
1042.15	48.6445
1045.05	92.6943
1047.94	51.706
1050.83	52.6025
1053.72	95.9141
1056.62	115.584
1059.51	34.5156
1062.4	93.0566
1065.29	39.1406
1068.19	49.4062
1071.08	100.012
1073.97	78.9805
1076.87	0.880859
1079.76	73.6836
1082.65	74.6777
1085.54	107.052
1088.44	17.1416
1091.33	75.458
1094.22	176.644
1097.11	83.0977
1100.01	79.8438
1102.9	56.5791
1105.79	6.41602
1108.68	43.4277
1111.58	7.44531
1114.47	56.5273
1117.36	38.3379
1120.26	69.3818
1123.15	69.8652
1126.04	43.5859
1128.93	44.4463
1131.83	66.5615
1134.72	29.4404
1137.61	37.2109
1140.5	77
1143.4	62.5615
1146.29	79.7871
1149.18	38.5391
1152.08	44.0879
1154.97	82.8848
1157.86	132.181
1160.75	37.5566
1163.65	36
1166.54	43.3897
1169.43	35.7031
1172.32	67.0254
1175.22	50.376
1178.11	38.7412
1181	24.998
1183.89	48.5664
1186.79	34.9473
1189.68	2.79394
1192.57	16.3184
1195.46	9.42871
1198.36	19.7676
1201.25	100.64
1204.14	66.7988
1207.04	67.667
1209.93	69.5859
1212.82	58.8848
1215.71	126.811
1218.61	59.0664
1221.5	89.5742
1224.39	43.4072
1227.29	62.9746
1230.18	141.769
1233.07	59.2168
1235.96	46.6406
1238.86	105.115
1241.75	76.7476
