Measurement: Raman, 532 nm, unoriented, Raman Data Processed
Mineral: Cookeite
Rruff sample: R061103
Ideal chemistry: LiAl_4_(Si_3_Al)O_10_(OH)_8_
Locality: Green mine, Saline County, Arkansas, USA
Source: Michael Scott
Description: Mass of cream colored micaceous crystals
Raman shift (cm-1)	intensity
176.698	0
179.591	15.207
182.483	49.9453
185.376	199.918
188.269	295.348
191.162	264.012
194.054	285.492
196.947	317.828
199.84	268.041
202.732	427.711
205.625	356.285
208.518	371.691
211.411	370.578
214.303	327.527
217.196	470.19
220.089	382.584
222.981	523.15
225.874	275.986
228.767	377.793
231.659	509.685
234.552	405.762
237.445	216.894
240.338	264.219
243.23	358.984
246.123	281.111
249.016	257.332
251.908	290.416
254.801	260.565
257.694	276.941
260.586	417.098
263.479	278.566
266.372	337.812
269.264	282.262
272.157	150.465
275.05	156.789
277.943	111.012
280.835	261.414
283.728	233.254
286.621	103.777
289.514	156.918
292.406	76.3984
295.299	29.4414
298.192	135.688
301.084	94.6992
303.977	113.363
306.87	94.7344
309.762	45.1797
312.655	120.25
315.548	13.0391
318.44	60.1953
321.333	76.5117
324.226	93.0781
327.119	5.71094
330.011	17.168
332.904	52.9258
335.797	40.2305
338.689	84.582
341.582	66.0508
344.475	29.9961
347.368	58.3516
350.26	144.219
353.153	17.7578
356.046	104.394
358.938	178.195
361.831	42.2461
364.724	20.2148
367.616	55.4727
370.509	123.914
373.402	71.0977
376.295	170.797
379.187	89.3203
382.08	25.0195
384.973	171.559
387.865	11.9844
390.758	17.0039
393.651	90.9492
396.543	121.594
399.436	49.4375
402.329	171.981
405.221	11.7773
408.114	32.625
411.007	87.625
413.9	120.566
416.792	51.0352
419.685	143.723
422.578	203.207
425.47	76.7734
428.363	89.6562
431.256	135.156
434.149	211.984
437.041	135.824
439.934	112.078
442.827	189.152
445.719	247.816
448.612	57.3438
451.505	90.3984
454.397	105.117
457.29	127.34
460.183	132.078
463.075	97.8359
465.968	80.0781
468.861	26.7539
471.754	185.672
474.646	136.844
477.539	134.273
480.432	136.719
483.324	159.734
486.217	198.035
489.11	69.2539
492.003	278.797
494.895	226.914
497.788	86.2969
500.681	144.703
503.573	283.512
506.466	110.59
509.359	98.4609
512.251	200.473
515.144	236.098
518.037	88.043
520.93	1.57031
523.822	88.2109
526.715	58.1328
529.608	87.8633
532.5	86.3281
535.393	34.1836
538.286	43.7539
541.178	78.043
544.071	1.96094
546.964	230.969
549.857	119.816
552.749	107.742
555.642	71.8555
558.535	42.5898
561.427	109.664
564.32	101.875
567.213	6.73438
570.106	100.5
572.998	29.4023
575.891	22.2969
578.784	130.469
581.676	83.5977
584.569	17.4492
587.462	114.559
590.354	15.2148
593.247	153.043
596.14	85.9062
599.033	196.133
601.925	98.2266
604.818	178.769
607.711	57.9531
610.603	239.496
613.496	124.25
616.389	239.094
619.281	253.016
622.174	150.316
625.067	242.887
627.96	204.102
630.852	398.863
633.745	376.227
636.638	144.203
639.53	322.906
642.423	158.344
645.316	295.648
648.208	437.598
651.101	369.312
653.994	339.211
656.886	294.336
659.779	419.316
662.672	366.047
665.565	370.43
668.457	285.191
671.35	201.609
674.243	170.891
677.135	249.215
680.028	161.934
682.921	193.191
685.813	202.914
688.706	241.156
691.599	139.75
694.492	130.422
697.384	35.3398
700.277	168.113
703.17	13.5312
706.062	125.133
708.955	131.125
711.848	229.242
714.74	118.508
717.633	98.2109
720.526	268.387
723.419	92.3242
726.311	51.5938
729.204	272.656
732.097	144.082
734.989	149.129
737.882	101.121
740.775	61.8164
743.668	126.348
746.56	34.5234
749.453	118
752.346	59.8008
755.238	83.4531
758.131	129.57
761.024	186.945
763.917	19.8984
766.809	305.273
769.702	163.578
772.595	159.984
775.487	100.789
778.38	239.906
781.273	162.738
784.165	229.445
787.058	135.555
789.951	266.82
792.843	11.6055
795.736	66.1719
798.629	119.285
801.522	193.324
804.414	154.824
807.307	91.8281
810.2	85.3828
813.092	92.6094
815.985	329.578
818.878	168.301
821.77	215.555
824.663	153.586
827.556	185.332
830.449	21.4375
833.341	52.2031
836.234	15
839.127	236.516
842.019	152.348
844.912	367.598
847.805	250.516
850.697	281.836
853.59	137.141
856.483	96.168
859.376	147.887
862.268	250.066
865.161	198.305
868.054	102.242
870.946	97.1445
873.839	150.59
876.732	112.336
879.625	227.344
882.517	90.8047
885.41	73.9531
888.303	284.898
891.195	295.934
894.088	292.379
896.981	102.531
899.874	184.125
902.766	247.785
905.659	289.383
908.552	214.012
911.444	29.4453
914.337	155.312
917.23	88.6211
920.122	165.426
923.015	157.394
925.908	28.1328
928.801	70.543
931.693	172.426
934.586	147.844
937.479	105.781
940.371	51.0312
943.264	131.734
946.157	174.211
949.049	74.6367
951.942	214.344
954.835	22.4727
957.727	287.766
960.62	203.969
963.513	155.055
966.406	148.418
969.298	178.418
972.191	267.871
975.084	295.961
977.976	30.0195
980.869	133.633
983.762	105.953
986.654	101.383
989.547	158.453
992.44	225.801
995.333	103.535
998.225	234.609
1001.12	283.676
1004.01	192.531
1006.9	32.1484
1009.8	195.356
1012.69	314.555
1015.58	2.37891
1018.47	267.797
1021.37	301.059
1024.26	296.445
1027.15	227.699
1030.05	184.547
1032.94	302.906
1035.83	264.516
1038.72	130.449
1041.62	150.406
1044.51	286.801
1047.4	255.625
1050.29	69.2852
1053.19	158.508
1056.08	158.762
1058.97	193.945
1061.87	154.961
1064.76	190.062
1067.65	195.914
1070.54	172.531
1073.44	235.453
1076.33	119.875
1079.22	131.914
1082.11	207.078
1085.01	77.5391
1087.9	6.32812
1090.79	199.289
1093.68	151.594
1096.58	197.812
1099.47	39
1102.36	21.2266
1105.26	57.4766
1108.15	109.078
1111.04	0.601563
1113.93	47.8281
1116.83	69.7891
1119.72	85.5859
1122.61	215.945
1125.5	155.07
1128.4	122.883
1131.29	95.3281
1134.18	103.188
1137.08	57.2266
1139.97	152.023
1142.86	258.391
1145.75	172.758
1148.65	17.6875
1151.54	396.031
1154.43	25.8438
1157.32	250.055
1160.22	21.1484
1163.11	59.5781
1166	128.664
1168.89	301.727
1171.79	168.711
1174.68	173.062
1177.57	151.641
1180.46	66.8984
1183.36	174.875
1186.25	183.664
1189.14	250.82
1192.04	232.852
1194.93	195.047
1197.82	204.898
1200.71	313.242
1203.61	252.617
1206.5	260.867
1209.39	197.094
1212.29	246.242
1215.18	106.109
1218.07	124.641
1220.96	208.859
1223.86	223.031
1226.75	264.234
1229.64	58.4766
1232.53	488.18
1235.43	0.632813
1238.32	249.617
1241.21	386.844
1244.11	121.258
1247	247.75
1249.89	182.352
1252.78	146.672
1255.68	463.336
1258.57	221.289
1261.46	332.43
1264.35	209.461
1267.25	355.273
1270.14	297.43
1273.03	457.672
1275.92	329.164
1278.82	402.922
1281.71	224.211
1284.6	705.82
1287.49	407.945
1290.39	78.3516
1293.28	264.148
1296.17	241.703
1299.07	343.5
1301.96	173.211
1304.85	170.531
1307.74	254.25
1310.64	108.312
