Measurement: Raman, 785 nm, unoriented, Raman Data Processed
Mineral: Cookeite
Rruff sample: R061103
Ideal chemistry: LiAl_4_(Si_3_Al)O_10_(OH)_8_
Locality: Green mine, Saline County, Arkansas, USA
Source: Michael Scott
Description: Mass of cream colored micaceous crystals
Raman shift (cm-1)	intensity
202.788	0
205.68	7.09375
208.573	197.168
211.466	47.7852
214.358	172.41
217.251	233.004
220.144	381.602
223.037	654.25
225.929	738.348
228.822	424.918
231.715	415.328
234.607	668.262
237.5	595.602
240.393	807.977
243.286	928.059
246.178	909.461
249.071	808.488
251.964	800.938
254.856	1132.71
257.749	1059.4
260.642	1188.89
263.534	1237.36
266.427	1412.09
269.32	1170.04
272.212	1119.76
275.105	998.246
277.998	922.394
280.891	840.144
283.783	1000.15
286.676	956.293
289.569	1003.64
292.461	805.422
295.354	815.453
298.247	622.898
301.139	632.922
304.032	791.512
306.925	613.059
309.818	811.254
312.71	762.516
315.603	574.238
318.496	486.078
321.388	356.691
324.281	382.023
327.174	491.086
330.067	419.473
332.959	496.016
335.852	485.019
338.745	255.66
341.637	230.977
344.53	288.359
347.423	250.332
350.315	236.289
353.208	344.672
356.101	219.961
358.993	243.672
361.886	13.9453
364.779	32.4297
367.672	35.4414
370.564	96.7773
373.457	196.727
376.35	280.023
379.242	152.848
382.135	86.6953
385.028	69.9219
387.921	23.2031
390.813	4.39844
393.706	177.383
396.599	145.41
399.491	55.1562
402.384	115.184
405.277	77.4844
408.169	110.734
411.062	57.0938
413.955	84.6641
416.848	146.121
419.74	172.637
422.633	209.844
425.526	293.039
428.418	169.301
431.311	88.5703
434.204	182.719
437.096	138.949
439.989	95.6641
442.882	247.301
445.774	224.727
448.667	113.812
451.56	165.309
454.452	118.137
457.345	138.609
460.238	65.4688
463.131	150.019
466.023	355.484
468.916	333.383
471.809	379.508
474.701	91.9883
477.594	217.914
480.487	66.3555
483.38	127.578
486.272	208.094
489.165	171.356
492.058	197.246
494.95	285.32
497.843	104.215
500.736	93.043
503.628	21.5391
506.521	226.508
509.414	90.5938
512.307	250.856
515.199	306.434
518.092	43.8906
520.985	52.1016
523.877	15.0391
526.77	9.90625
529.663	63.043
532.555	190.172
535.448	184.519
538.341	241.293
541.234	193.574
544.126	70
547.019	131.133
549.912	127.336
552.804	47.207
555.697	233.648
558.59	62.4414
561.482	300.875
564.375	183.746
567.268	219.004
570.16	233.898
573.053	232.797
575.946	285.785
578.839	212.231
581.731	422.266
584.624	162.922
587.517	301.312
590.409	266.109
593.302	257.578
596.195	219.281
599.087	175.539
601.98	336.379
604.873	386.188
607.766	239.062
610.658	273.938
613.551	192.691
616.444	131.586
619.336	179.211
622.229	204.84
625.122	201.668
628.014	157.148
630.907	116.305
633.8	183.602
636.693	74.9688
639.585	150.348
642.478	176.106
645.371	65.6445
648.263	62.832
651.156	62.6797
654.049	5.86719
656.942	130.707
659.834	36.4414
662.727	80.4375
665.62	100.828
668.512	34.9453
671.405	135.258
674.298	79.9688
677.19	38.1406
680.083	152.195
682.976	79.5
685.869	252.531
688.761	198.863
691.654	90.9453
694.547	268.887
697.439	235.965
700.332	337.723
703.225	365.422
706.117	357.82
709.01	258.844
711.903	298.129
714.795	375.363
717.688	328.344
720.581	172.644
723.474	371.953
726.366	181.961
729.259	195.484
732.152	168.606
735.044	111.883
737.937	44.8906
740.83	152.293
743.722	177.019
746.615	80.9922
749.508	211.504
752.401	149.91
755.293	163.609
758.186	209.898
761.079	102.195
763.971	177.66
766.864	50.3438
769.757	28.3945
772.649	33.7305
775.542	4.89844
778.435	108.406
781.328	69.5391
784.22	98.4297
787.113	145.223
790.006	159.426
792.898	140.984
795.791	248.019
798.684	170.953
801.576	77.0938
804.469	1.85156
807.362	209.269
810.255	175.238
813.147	168.856
816.04	206.637
818.933	147.66
821.825	250.383
824.718	173.727
827.611	231.203
830.503	84.8867
833.396	174.559
836.289	221.234
839.182	266.883
842.074	234.941
844.967	201.508
847.86	188.875
850.752	142.816
853.645	50.3203
856.538	230.035
859.43	270.047
862.323	269.848
865.216	68.3633
868.109	138.961
871.001	148.914
873.894	184.828
876.787	99.4922
879.679	125.758
882.572	202.254
885.465	135.566
888.357	194.199
891.25	84.1074
894.143	159.281
897.035	17.0449
899.928	138.943
902.821	31.291
905.714	144.256
908.606	116.426
911.499	156.535
914.392	84.75
917.284	178.744
920.177	200.287
923.07	109.078
925.962	217.078
928.855	214.07
931.748	126.938
934.641	59.4961
937.533	73.2559
940.426	79.5527
943.319	65.7598
946.211	60.2773
949.104	94.9297
951.997	118.732
954.889	71.8672
957.782	211.682
960.675	92.7266
963.568	63.2324
966.46	98.3027
969.353	227.477
972.246	111.879
975.138	5.92188
978.031	78.6231
980.924	70.9102
983.817	100.527
986.709	29.1191
989.602	152.188
992.495	7.89258
995.387	0.623047
998.28	37.416
1001.17	88.4336
1004.07	128.527
1006.96	131.123
1009.85	6.44141
1012.74	153.519
1015.64	38.3184
1018.53	104.449
1021.42	150.715
1024.31	53.9434
1027.21	170.844
1030.1	11.4355
1032.99	77.5977
1035.88	128.816
1038.78	175.508
1041.67	67.5781
1044.56	62.9238
1047.46	97.1484
1050.35	99.7812
1053.24	63.0527
1056.13	43.293
1059.03	190.947
1061.92	113.947
1064.81	9.95898
1067.7	89.5
1070.6	139.363
1073.49	196.793
1076.38	45.5
1079.28	221.812
1082.17	78.3418
1085.06	218.719
1087.95	77.3633
1090.85	103.793
1093.74	165.168
1096.63	154.283
1099.52	110.977
1102.42	134.148
1105.31	146.732
1108.2	198.728
1111.1	64.5996
1113.99	144.059
1116.88	108.193
1119.77	133.797
1122.67	110.537
1125.56	237.438
1128.45	174.582
1131.34	116.699
1134.24	14.459
1137.13	229.603
1140.02	214.754
1142.91	84.3769
1145.81	121.578
1148.7	185.881
1151.59	108.9
1154.49	150.529
1157.38	57.8809
1160.27	147.086
1163.16	79.7285
1166.06	41.457
1168.95	145.147
1171.84	118.154
1174.73	28.0449
1177.63	96.6719
1180.52	48.8301
1183.41	39.0977
1186.31	139.67
1189.2	50.5527
1192.09	67.2519
1194.98	162.883
1197.88	111.291
1200.77	94.6074
1203.66	122.353
1206.55	154.799
1209.45	66.459
1212.34	80.7754
1215.23	159.803
1218.12	56.3281
1221.02	142.078
1223.91	146.315
1226.8	60.6914
1229.7	104.512
1232.59	89.1113
