Measurement: Raman, 532 nm, unoriented, Raman Data Processed
Mineral: Copper
Rruff sample: R061078
Ideal chemistry: Cu
Locality: Afton mine, Kamloops, British Columbia, Canada
Source: Lloyd Twaites
Description: Rose-brass colored massive metallic
Raman shift (cm-1)	intensity
190.465	0
193.357	16.3994
196.25	35.3606
199.143	1.84522
202.036	42.1963
204.928	23.8948
207.821	21.9216
210.714	27.7908
213.606	39.4605
216.499	13.3418
219.392	43.553
222.284	37.9932
225.177	33.9248
228.07	14.1582
230.963	23.1482
233.855	41.209
236.748	13.926
239.641	31.1113
242.533	12.8054
245.426	8.7019
248.319	0.624268
251.211	22.9419
254.104	12.7019
256.997	33.342
259.889	29.3535
262.782	27.1655
265.675	65.0156
268.568	57.7476
271.46	45.2944
274.353	34.3215
277.246	43.8669
280.138	19.4898
283.031	31.688
285.924	6.4126
288.817	14.8852
291.709	53.6101
294.602	6.07446
297.495	41.9907
300.387	38.1904
303.28	25.9009
306.173	34.5881
309.065	23.7495
311.958	45.3418
314.851	49.9287
317.743	26.7105
320.636	12.9133
323.529	33.7876
326.422	5.94751
329.314	47.386
332.207	28.7749
335.1	43.7495
337.992	56.9815
340.885	51.2493
343.778	7.50073
346.671	64.8303
349.563	36.7864
352.456	12.4893
355.349	6.40308
358.241	30.9675
361.134	51.179
364.027	55.8391
366.919	36.8887
369.812	26.2429
372.705	61.0388
375.597	42.4888
378.49	22.6272
381.383	31.9934
384.276	20.2063
387.168	36.7874
390.061	53.3242
392.954	53.9106
395.846	40.0923
398.739	25.3084
401.632	40.9788
404.524	31.5325
407.417	10.9358
410.31	39.3264
413.202	48.6233
416.095	1.21314
418.988	38.5625
421.881	8.90308
424.773	26.6689
427.666	23.2422
430.559	48.8648
433.451	16.071
436.344	22.9439
439.237	45.8394
442.13	42.832
445.022	56.9094
447.915	20.8262
450.808	43.0149
453.7	29.2537
456.593	45.8611
459.486	27.5737
462.378	30.5708
465.271	16.9512
468.164	38.8543
471.057	31.9336
473.949	48.5552
476.842	28.1584
479.735	24.9731
482.627	39.343
485.52	35.428
488.413	20.1956
491.305	16.5041
494.198	10.1182
497.091	5.62988
499.983	16.4666
502.876	40.1008
505.769	34.7634
508.662	11.2332
511.554	30.4324
514.447	41.9692
517.34	24.0315
520.232	40.8672
523.125	22.9109
526.018	57.0886
528.91	32.2466
531.803	4.78491
534.696	17.4351
537.588	2.52075
540.481	33.3374
543.374	0.797607
546.267	19.7588
549.159	24.0479
552.052	5.2417
554.945	19.4995
557.837	35.6025
560.73	26.2546
563.623	31.7407
566.515	30.9224
569.408	0.564209
572.301	12.5569
575.194	28.7852
578.086	31.9141
580.979	42.9695
583.872	37.5376
586.764	26.406
589.657	11.9453
592.55	27.095
595.442	55.71
598.335	15.3804
601.228	40.2766
604.121	41.7498
607.013	50.6348
609.906	21.8115
612.799	4.96533
615.691	31.1946
618.584	31.2073
621.477	18.8691
624.369	60.4949
627.262	49.4727
630.155	35.3562
633.048	28.4971
635.94	22.7517
638.833	31.0308
641.726	41.3101
644.618	27.7407
647.511	13.6553
650.404	25.8965
653.296	11.8555
656.189	1.40942
659.082	10.239
661.975	9.0498
664.867	34.0395
667.76	38.8926
670.653	20.7219
673.545	21.6777
676.438	3.75366
679.331	16.6169
682.223	9.88867
685.116	16.885
688.009	20.4861
690.902	28.5727
693.794	52.9663
696.687	33.5732
699.58	62.3972
702.472	43.6589
705.365	39.6946
708.258	36.637
711.15	43.8472
714.043	58.877
716.936	51.9119
719.828	43.8328
722.721	41.2339
725.614	3.10718
728.507	55.7759
731.399	42.1331
734.292	34.3865
737.185	37.6675
740.077	23.5046
742.97	20.3928
745.863	41.6392
748.755	4.99561
751.648	20.5083
754.541	5.64307
757.434	19.2224
760.326	40.5483
763.219	44.5395
766.112	10.4829
769.004	27.3948
771.897	30.8977
774.79	34.7605
777.683	42.5671
780.575	51.9258
783.468	52.3684
786.361	40.9653
789.253	36.3044
792.146	16.7012
795.039	42.5608
797.931	33.8232
800.824	7.64673
803.717	30.4311
806.609	9.31885
809.502	30.9346
812.395	38.2815
815.288	16.7495
818.18	0.279297
821.073	20.6472
823.966	0.943604
826.858	3.28149
829.751	23.5159
832.644	12.3057
835.536	23.8643
838.429	4.06226
841.322	21.9067
844.215	59.8557
847.107	19.3623
850	48.7126
852.893	54.8455
855.785	34.3962
858.678	49.5273
861.571	17.5801
864.463	3.48853
867.356	66.3433
870.249	63.3
873.141	65.6577
876.034	34.9426
878.927	21.7812
881.82	11.9939
884.712	58.1411
887.605	8.698
890.498	28.5935
893.39	41.6382
896.283	9.31567
899.176	43.4543
902.068	71.0149
904.961	15.2358
907.854	32.7742
910.747	39.73
913.639	2.26831
916.532	7.68262
919.425	47.0171
922.317	84.8523
925.21	10.5496
928.103	22.1414
930.995	36.2556
933.888	42.5264
936.781	56.1223
939.674	82.7866
942.566	59.3472
945.459	43.4815
948.352	83.8308
951.244	11.5252
954.137	21.5354
957.03	41.657
959.922	34.4385
962.815	3.46118
965.708	16.5403
968.601	7.8042
971.493	20.0298
974.386	37.1499
977.279	51.5496
980.171	38.575
983.064	1.37134
985.957	9.39477
988.849	81.1248
991.742	37.668
994.635	55.2146
997.528	17.5422
1000.42	10.509
1003.31	16.0764
1006.21	24.2669
1009.1	37.8687
1011.99	14.6028
1014.88	3.88281
1017.78	44.8645
1020.67	9.03174
1023.56	51.7671
1026.45	32.6728
1029.35	26.7429
1032.24	62.5645
1035.13	13.2681
1038.03	35.1331
1040.92	35.4436
1043.81	40.0188
1046.7	44.7886
1049.6	56.4011
1052.49	26.344
1055.38	46.228
1058.27	5.46143
1061.17	33.3911
1064.06	50.154
1066.95	13.8584
1069.85	39.7727
1072.74	53.5457
1075.63	20.76
1078.52	49.6296
1081.42	80.8794
1084.31	26.3049
1087.2	50.0046
1090.09	49.1057
1092.99	29.4255
1095.88	14.7673
1098.77	51.8489
1101.66	30.2283
1104.56	90.9431
1107.45	37.4639
1110.34	7.6001
1113.23	1.96069
1116.13	23.054
1119.02	26.9229
1121.91	21.3948
1124.81	39.1189
1127.7	35.8706
1130.59	7.32129
1133.48	53.7056
1136.38	20.0002
1139.27	66.6086
1142.16	44.0801
1145.06	15.8118
1147.95	31.6152
1150.84	19.1497
1153.73	33.853
1156.63	58.0759
1159.52	77.074
1162.41	53.4136
1165.3	10.7898
1168.2	36.0427
1171.09	47.49
1173.98	41.9419
1176.88	24.8193
1179.77	20.4895
1182.66	35.126
1185.55	20.4551
1188.45	66.7017
1191.34	59.4365
1194.23	44.052
1197.12	8.0708
1200.02	60.5513
1202.91	23.373
1205.8	42.9736
1208.69	39.1909
1211.59	30.437
1214.48	87.8672
1217.37	27.0176
1220.27	43.125
1223.16	45.0923
1226.05	66.5156
1228.94	59.1045
1231.84	73.856
1234.73	46.3252
1237.62	21.373
1240.51	11.8745
1243.41	59.4233
1246.3	2.76514
1249.19	85.5137
1252.09	33.8218
1254.98	46.3428
1257.87	42.2451
1260.76	32.1343
1263.66	4.67773
1266.55	65.5928
1269.44	11.021
1272.33	6.43359
1275.23	47.0718
1278.12	45.4102
1281.01	26.7192
1283.9	0
