Measurement: Raman, 785 nm, unoriented, Raman Data Processed
Mineral: Copper
Rruff sample: R061078
Ideal chemistry: Cu
Locality: Afton mine, Kamloops, British Columbia, Canada
Source: Lloyd Twaites
Description: Rose-brass colored massive metallic
Raman shift (cm-1)	intensity
124.421	0
127.314	575.028
130.206	2473.36
133.099	2950.86
135.992	1376.45
138.884	864.643
141.777	1665.04
144.67	3365.6
147.562	4393.76
150.455	3679.79
153.348	2525.66
156.24	1899.03
159.133	1646.58
162.026	1542.81
164.919	1145.87
167.811	914.875
170.704	696.975
173.597	548.25
176.489	501.725
179.382	275.94
182.275	205.675
185.167	134.282
188.06	44.5989
190.953	24.1895
193.846	21.5894
196.738	3.96704
199.631	51.5264
202.524	14.7234
205.416	8.96533
208.309	67.7119
211.202	46.4575
214.095	47.5054
216.987	17.803
219.88	11.5913
222.773	3.01025
225.665	10.5627
228.558	26.5674
231.451	36.0474
234.343	26.2424
237.236	74.4939
240.129	96.0066
243.022	90.3645
245.914	113.972
248.807	126.948
251.7	132.995
254.592	148.449
257.485	136.686
260.378	132.934
263.27	157.626
266.163	175.748
269.056	125.201
271.949	128.425
274.841	132.434
277.734	120.762
280.627	118.207
283.519	72.981
286.412	54.8357
289.305	85.7031
292.197	70.6575
295.09	84.7449
297.983	76.4302
300.875	76.9351
303.768	92.4082
306.661	83.6167
309.554	120.438
312.446	61.1934
315.339	93.1987
318.232	72.1543
321.124	25.3088
324.017	59.5168
326.91	70.999
329.803	70.9937
332.695	81.6479
335.588	50.0173
338.481	52.0335
341.373	52.2693
344.266	62.3813
347.159	59.9665
350.051	74.6565
352.944	27.2883
355.837	28.522
358.729	6.48755
361.622	35.0181
364.515	28.6729
367.408	57.9114
370.3	25.0845
373.193	74.8274
376.086	74.1125
378.978	34.9785
381.871	44.1404
384.764	54.894
387.656	37.043
390.549	56.1838
393.442	66.1033
396.335	37.0828
399.227	59.1985
402.12	50.1604
405.013	38.252
407.905	43.7568
410.798	25.7366
413.691	16.783
416.584	28.3447
419.476	53.2913
422.369	60.0979
425.262	18.4607
428.154	20.3901
431.047	28.1111
433.94	7.35229
436.832	7.5354
439.725	4.22363
442.618	19.3957
445.51	22.9526
448.403	8.43823
451.296	25.4446
454.189	14.1755
457.081	15.6648
459.974	14.0444
462.867	24.8733
465.759	54.6985
468.652	61.0845
471.545	20.0281
474.438	75.1367
477.33	85.2832
480.223	27.1599
483.116	19.8254
486.008	36.9622
488.901	39.6787
491.794	65.1455
494.686	87.5195
497.579	75.5503
500.472	99.6257
503.365	98.2969
506.257	73.2148
509.15	91.4707
512.043	81.606
514.935	70.2329
517.828	84.1597
520.721	116.527
523.613	138.158
526.506	96.8953
529.399	63.5217
532.292	59.8428
535.184	26.0254
538.077	57.7986
540.97	64.562
543.862	69.9514
546.755	26.8709
549.648	4.6897
552.54	35.5359
555.433	5.28003
558.326	37.8596
561.218	0.804688
564.111	6.24902
567.004	26.0901
569.897	37.8789
572.789	30.3149
575.682	34.7649
578.575	53.6267
581.467	118.238
584.36	106.057
587.253	121.472
590.145	131.531
593.038	114.378
595.931	104.931
598.824	171.926
601.716	155.534
604.609	150.347
607.502	154.447
610.394	224.141
613.287	181.179
616.18	218.901
619.072	210.353
621.965	234.092
624.858	222.373
627.751	225.454
630.643	235.935
633.536	192.856
636.429	222.845
639.321	174.05
642.214	139.11
645.107	160.824
648	132.954
650.892	106.122
653.785	101.731
656.678	52.9785
659.57	42.7002
662.463	37.0046
665.356	3.62671
668.248	12.9192
671.141	11.4211
674.034	16.3721
676.927	21.3752
679.819	28.5696
682.712	20.5862
685.605	49.9399
688.497	19.8105
691.39	8.77539
694.283	24.7446
697.175	42.2725
700.068	41.7727
702.961	23.6255
705.854	47.7188
708.746	42.9983
711.639	20.2664
714.532	56.5662
717.424	61.9851
720.317	84.7512
723.21	62.509
726.102	74.1172
728.995	58.8508
731.888	49.2026
734.78	21.2341
737.673	69.1743
740.566	52.5859
743.459	60.1125
746.351	76.019
749.244	70.3298
752.137	54.2053
755.029	57.114
757.922	60.4714
760.815	32.0759
763.707	18.4355
766.6	34.8418
769.493	34.6375
772.386	51.8215
775.278	34.4097
778.171	43.1668
781.064	27.0161
783.956	26.3494
786.849	37.6655
789.742	18.2954
792.635	35.3064
795.527	5.82178
798.42	29.271
801.313	16.4727
804.205	32.9551
807.098	38.5552
809.991	33.0029
812.883	20.2673
815.776	9.67456
818.669	42.2361
821.562	44.4968
824.454	19.5376
827.347	57.9211
830.24	16.6218
833.132	35.6965
836.025	9.08154
838.918	20.8928
841.81	14.991
844.703	24.7136
847.596	74.3914
850.489	56.8689
853.381	44.1267
856.274	31.1768
859.167	37.554
862.059	0.023438
864.952	38.2671
867.845	48.1819
870.737	41.3523
873.63	31.5852
876.523	29.4814
879.415	3.63696
882.308	12.8967
885.201	22.3245
888.094	17.5156
890.986	21.595
893.879	44.8499
896.772	30.7971
899.664	17.9675
902.557	27.98
905.45	64.8445
908.342	56.6043
911.235	48.4944
914.128	20.5122
917.021	16.7061
919.913	22.5361
922.806	6.97095
925.699	39.4016
928.591	15.5225
931.484	18.5574
934.377	59.4504
937.269	58.8257
940.162	3.37427
943.055	16.563
945.948	24.6843
948.84	46.7932
951.733	32.2571
954.626	17.2844
957.518	28.8562
960.411	62.1731
963.304	30.7791
966.197	44.1575
969.089	16.3782
971.982	48.6218
974.875	71.1843
977.767	33.6946
980.66	60.7725
983.553	80.9524
986.445	41.9031
989.338	9.64575
992.231	15.4355
995.124	48.2417
998.016	42.199
1000.91	41.9128
1003.8	50.5278
1006.69	38.6453
1009.59	32.2693
1012.48	26.4377
1015.37	63.4783
1018.26	21.3852
1021.16	38.7993
1024.05	0.132324
1026.94	31.5852
1029.84	52.6763
1032.73	6.71484
1035.62	69.147
1038.51	96.3567
1041.41	53.0483
1044.3	58.783
1047.19	42.0523
1050.09	41.3713
1052.98	53.2058
1055.87	43.8486
1058.76	63.2756
1061.66	62.6318
1064.55	72.6052
1067.44	26.9434
1070.33	57.8457
1073.23	34.1987
1076.12	46.9697
1079.01	34.8633
1081.9	40.7625
1084.8	4.94092
1087.69	39.9431
1090.58	3.07324
1093.47	24.2986
1096.37	12.8674
1099.26	49.6831
1102.15	35.7561
1105.05	21.7109
1107.94	12.2798
1110.83	61.1602
1113.72	19.3552
1116.62	40.0466
1119.51	33.4727
1122.4	39.8452
1125.3	1.94189
1128.19	41.052
1131.08	8.30798
1133.97	41.8543
1136.87	10.0587
1139.76	20.6112
1142.65	46.6307
1145.54	48.8765
1148.44	26.6072
1151.33	29.656
1154.22	31.8975
1157.12	31.6704
1160.01	13.8287
1162.9	30.8358
1165.79	13.6842
1168.68	41.4858
1171.58	24.502
1174.47	19.892
1177.36	50.3093
1180.26	44.7191
1183.15	61.6807
1186.04	35.3113
1188.93	27.5236
1191.83	28.0765
1194.72	51.952
1197.61	78.2313
1200.51	77.9442
1203.4	3.47913
1206.29	14.9183
1209.18	70.5609
1212.08	1.2688
1214.97	58.8426
1217.86	59.6521
1220.75	48.7106
1223.65	70.2872
1226.54	52.5303
1229.43	48.1963
1232.33	49.4535
1235.22	30.1309
1238.11	8.85095
1241	43.589
1243.9	61.9348
1246.79	80.4774
1249.68	91.4262
1252.57	18.0579
1255.47	37.1112
1258.36	20.2152
1261.25	19.1576
1264.14	0
