Measurement: Raman, 780 nm, unoriented, Raman Data Processed
Mineral: Cordylite-(Ce)
Rruff sample: R110181
Ideal chemistry: (Na,Ca,[box])BaCe_2_(CO_3_)_4_(F,O)
Locality: Demix Quarry, Mont St-Hilaire, Quebec, Canada
Source: Donald Doell
Description: Tan colored hexagonal prism associated with albite and siderite (Raman people, check the ID of these associated minerals).The cordylite may be mixed with parisite. Need to check this carefully!
Raman shift (cm-1)	intensity
163.439	17548
166.332	18302.2
169.224	19070.7
172.117	19907
175.01	20770.6
177.902	21721.7
180.795	22574.5
183.688	23559
186.581	24448.4
189.473	25430.6
192.366	26527.3
195.259	27601
198.151	28652.5
201.044	29902.9
203.937	31120.7
206.829	32597.5
209.722	34072.2
212.615	35572.4
215.507	37175.2
218.4	38946.3
221.293	40783
224.186	42833.9
227.078	44759.5
229.971	46668.5
232.864	48734.9
235.756	50678.2
238.649	52716.2
241.542	54391.4
244.435	56239
247.327	57903.8
250.22	59299.7
253.113	60390.3
256.005	61701.9
258.898	62808.8
261.791	63908.9
264.683	64656.7
267.576	65291.9
270.469	65646.7
273.361	65857.9
276.254	65646.5
279.147	64941.6
282.04	64191.1
284.932	63101.7
287.825	61527.1
290.718	60116.6
293.61	58191.6
296.503	56540.6
299.396	54780.6
302.288	52916.5
305.181	51423.1
308.074	49774.1
310.967	48496.1
313.859	47034.2
316.752	45833.4
319.645	44762.9
322.537	43737
325.43	42836.2
328.323	42051.8
331.216	41448.2
334.108	40828.4
337.001	40306.6
339.894	39949.4
342.786	39535.9
345.679	39246.7
348.572	38901.9
351.464	38660.3
354.357	38492.3
357.25	38349.5
360.142	38208.1
363.035	38007.9
365.928	37863.5
368.821	37842.6
371.713	37810.7
374.606	37602.5
377.499	37600.4
380.391	37565.9
383.284	37457.9
386.177	37567.9
389.07	37496.3
391.962	37550.5
394.855	37470
397.748	37577
400.64	37578.1
403.533	37470.7
406.426	37716.4
409.318	37822.1
412.211	37862.2
415.104	37667.8
417.997	37936.7
420.889	37970.2
423.782	38061
426.675	38026.4
429.567	38142.3
432.46	38248.3
435.353	38058.2
438.245	38035.7
441.138	37900.3
444.031	38058.6
446.923	37945.4
449.816	37685.2
452.709	37797.7
455.602	37596.2
458.494	37528.7
461.387	37425.7
464.28	37098.6
467.172	37004.3
470.065	36700.6
472.958	36568.6
475.851	36398.5
478.743	35981.3
481.636	35771.3
484.529	35517.6
487.421	35336
490.314	35221.9
493.207	34936.9
496.099	34730.4
498.992	34536.6
501.885	34330.8
504.777	34045.4
507.67	33900.4
510.563	33662.7
513.456	33518.9
516.348	33126.8
519.241	32958
522.134	32784.4
525.026	32466.4
527.919	32491.8
530.812	32174.3
533.705	32209
536.597	31861.2
539.49	31764.9
542.383	31690.5
545.275	31641.1
548.168	31543.6
551.061	31481.7
553.953	31443.5
556.846	31453
559.739	31378.8
562.631	31308
565.524	31239.2
568.417	31488.6
571.31	31230.7
574.202	31300.5
577.095	31374
579.988	31359.3
582.88	31332.8
585.773	31335.1
588.666	31148.7
591.558	31080.5
594.451	30904.2
597.344	30727.2
600.237	30405.3
603.129	30225.5
606.022	29848
608.915	29510.2
611.807	29108.3
614.7	28488.8
617.593	28232.9
620.486	27731.2
623.378	27263.4
626.271	26739.5
629.164	26272.5
632.056	25700.7
634.949	25183.2
637.842	24622.9
640.734	24178.9
643.627	23450.2
646.52	22941.1
649.413	22345.7
652.305	21713.3
655.198	21099.2
658.091	20465.2
660.983	19833.7
663.876	19224.7
666.769	18600.5
669.661	18065.6
672.554	17410.4
675.447	16915.8
678.34	16289.9
681.232	15812
684.125	15330.3
687.018	14760.5
689.91	14329.8
692.803	13895.3
695.696	13422.8
698.588	13014.1
701.481	12605.4
704.374	12218.9
707.266	11806.1
710.159	11458.4
713.052	11035.8
715.945	10790.9
718.837	10467.9
721.73	10072.4
724.623	9683.04
727.515	9489.4
730.408	9237.61
733.301	8995.1
736.193	8631.77
739.086	8475.78
741.979	8168.65
744.872	7976.48
747.764	7733.62
750.657	7526.95
753.55	7309.7
756.442	7115.47
759.335	6962.78
762.228	6769.68
765.12	6530.24
768.013	6366.32
770.906	6197.78
773.799	6048.33
776.691	5922.71
779.584	5836.82
782.477	5607.56
785.369	5518.17
788.262	5389.98
791.155	5223.67
794.048	5127.46
796.94	5027.19
799.833	4864.64
802.726	4724.44
805.618	4682.47
808.511	4581.33
811.404	4460.3
814.296	4332.46
817.189	4299.27
820.082	4214.67
822.975	4104.67
825.867	3978.51
828.76	3944.81
831.653	3834.07
834.545	3758.4
837.438	3675.3
840.331	3630.37
843.223	3551.1
846.116	3466.56
849.009	3443.57
851.902	3355.31
854.794	3266.86
857.687	3218.8
860.58	3178.75
863.472	3099.33
866.365	3054.34
869.258	3004.93
872.15	2975.51
875.043	2925.37
877.936	2828.55
880.829	2831.82
883.721	2808.97
886.614	2758.18
889.507	2691
892.399	2664.2
895.292	2617.59
898.185	2607.67
901.077	2597.59
903.97	2586.83
906.863	2543.71
909.756	2530.68
912.648	2512.18
915.541	2481.19
918.434	2490.93
921.326	2480.39
924.219	2495.37
927.112	2495.5
930.005	2456.99
932.897	2433.9
935.79	2434.42
938.683	2443.26
941.575	2434.19
944.468	2446.89
947.361	2468.68
950.253	2484.08
953.146	2484.83
956.039	2470.32
958.932	2537.81
961.824	2490.76
964.717	2510.57
967.61	2566.52
970.502	2567.26
973.395	2583.13
976.288	2631.41
979.18	2643.32
982.073	2707.88
984.966	2693.45
987.859	2746.53
990.751	2851.12
993.644	2892.69
996.537	2965.78
999.429	2998.61
1002.32	3039.88
1005.22	3122.64
1008.11	3136.77
1011	3228.59
1013.89	3316.87
1016.78	3431.24
1019.68	3450.34
1022.57	3594.07
1025.46	3662.87
1028.36	3752.53
1031.25	3879.92
1034.14	4012.34
1037.03	4079.67
1039.93	4194.26
1042.82	4289.78
1045.71	4469.24
1048.61	4552.57
1051.5	4708.65
1054.39	4803.83
1057.28	4980.51
1060.18	5122.27
1063.07	5301.56
1065.96	5443.86
1068.85	5615.57
1071.75	5753.11
1074.64	5949.4
1077.53	6122.05
1080.42	6285.38
1083.32	6446.09
1086.21	6662.48
1089.1	6797.89
1092	6967.12
1094.89	7150.54
1097.78	7331.29
1100.67	7542.26
1103.57	7690.4
1106.46	7871.16
1109.35	8074.04
1112.24	8282.87
1115.14	8446.33
1118.03	8633.33
1120.92	8849.53
1123.82	9068.14
1126.71	9266.07
1129.6	9456.17
1132.49	9586.77
1135.39	9937.19
1138.28	10082
1141.17	10334.7
1144.06	10581.1
1146.96	10897.2
1149.85	11132.3
1152.74	11394.4
1155.63	11611.7
1158.53	12005.3
1161.42	12274.4
1164.31	12636
1167.21	12992.4
1170.1	13371.7
1172.99	13801.2
1175.88	14209.4
1178.78	14636.7
1181.67	15176.6
1184.56	15582
1187.45	16136.7
1190.35	16750.5
1193.24	17380.4
1196.13	18109.8
1199.03	18721.5
1201.92	19476.1
1204.81	20122.2
1207.7	20926.8
1210.6	21863.5
1213.49	22955.7
1216.38	23951.2
1219.27	25125.4
1222.17	26254
1225.06	27755.4
1227.95	29214.5
1230.85	30664.6
1233.74	32690.5
1236.63	34229.4
1239.52	36139.4
1242.42	38228.9
1245.31	40437.8
1248.2	43134.2
1251.09	45717.8
1253.99	48456.8
1256.88	51546
1259.77	54731.5
1262.66	57971.8
1265.56	61012.8
1268.45	64088.5
1271.34	66708.4
1274.24	69430.4
1277.13	71502.2
1280.02	73035.5
1282.91	74436.8
