Measurement: Raman, 780 nm, unoriented, Raman Data Processed
Mineral: Cornwallite
Rruff sample: R050469
Ideal chemistry: Cu^2+^_5_(As^5+^O_4_)_2_(OH)_4_
Locality: Carissa mine, Tintic District, Utah, USA
Source: University of Arizona Mineral Museum
Description: Dark green botryoidal crust
Measured chemistry: (Cu_4.98_Ca_0.02_)_Î£=5_(As_1.00_O_4_)_2_(OH)_4_ ; OH estimated by difference and charge balance
Raman shift (cm-1)	intensity
140.066	0
142.959	0.144004
145.852	0.418326
148.744	0.743842
151.637	0.447965
154.53	0.646723
157.423	0.552305
160.315	0.814158
163.208	0.268776
166.101	0.149271
168.994	0.063685
171.886	0.327649
174.779	0.285852
177.672	0.217945
180.564	0.14234
183.457	0.214174
186.35	0.349191
189.242	0.012492
192.135	0.037865
195.028	0.167713
197.921	0.433339
200.813	0.203297
203.706	0.146942
206.599	0.034538
209.491	0.538085
212.384	0.125227
215.277	0.496474
218.169	0.358371
221.062	0.389241
223.955	0.264648
226.847	0.232832
229.74	0.054974
232.633	0.230528
235.526	0.097327
238.418	0.546144
241.311	0.243668
244.204	0.588705
247.096	0.603444
249.989	0.405989
252.882	0.181287
255.774	0.041101
258.667	0.229528
261.56	0.419615
264.453	0.423361
267.345	0.033611
270.238	0.744718
273.131	0.069736
276.023	0.030732
278.916	0.433974
281.809	0.057611
284.702	0.297066
287.594	0.288058
290.487	0.392626
293.38	0.506763
296.272	0.092253
299.165	0.030939
302.058	0.102023
304.95	0.251266
307.843	0.309876
310.736	0.039362
313.628	0.085226
316.521	0.325805
319.414	0.762563
322.307	0.365735
325.199	0.551756
328.092	0.406677
330.985	0.429387
333.877	0.356464
336.77	0.434387
339.663	0.353305
342.556	0.638745
345.448	0.570782
348.341	0.355477
351.234	0.675003
354.126	0.365247
357.019	0.33427
359.912	0.383377
362.805	0.225216
365.697	0.479486
368.59	0.400975
371.483	0.08752
374.375	0.751444
377.268	0.368591
380.161	0.010061
383.053	0.301993
385.946	0.023334
388.839	0.043175
391.731	0.452261
394.624	0.053252
397.517	0.089417
400.41	0.362726
403.302	0.245162
406.195	0.23553
409.088	0.093398
411.98	0.344651
414.873	0.276572
417.766	0.019516
420.659	0.235076
423.551	0.667962
426.444	0.580652
429.337	0.441378
432.229	0.523299
435.122	0.793767
438.015	0.377385
440.907	0.573519
443.8	0.48925
446.693	0.476639
449.586	0.089615
452.478	0.394832
455.371	0.101261
458.264	0.648367
461.156	0.133343
464.049	0.031146
466.942	0.217058
469.834	0.292997
472.727	0.120552
475.62	0.025658
478.513	0.466283
481.405	0.421809
484.298	0.002193
487.191	0.531572
490.083	0.354184
492.976	0.141439
495.869	0.52371
498.762	0.238439
501.654	0.274522
504.547	0.255061
507.44	0.413106
510.332	0.052492
513.225	0.360039
516.118	0.341304
519.01	0.256138
521.903	0.057825
524.796	0.568708
527.688	0.522018
530.581	0.187064
533.474	0.295319
536.367	0.387805
539.259	0.165899
542.152	0.444071
545.045	0.736057
547.937	0.559833
550.83	0.422393
553.723	0.360453
556.615	0.108426
559.508	0.575361
562.401	0.307903
565.294	0.08514
568.186	0.595639
571.079	0.312968
573.972	0.32923
576.864	0.256289
579.757	0.070184
582.65	0.526114
585.543	0.018451
588.435	0.232968
591.328	0.340429
594.221	0.419036
597.113	0.156056
600.006	0.195993
602.899	0.524289
605.791	0.309807
608.684	0.269657
611.577	0.476938
614.47	0.034987
617.362	0.385359
620.255	0.552432
623.148	0.330219
626.04	0.53703
628.933	0.516516
631.826	0.071345
634.718	0.36165
637.611	0.161745
640.504	0.257144
643.397	0.526791
646.289	0.123018
649.182	0.55343
652.075	0.174597
654.967	0.18691
657.86	0.176394
660.753	0.14268
663.645	0.203078
666.538	0.220982
669.431	0.173599
672.324	0.356726
675.216	0.3893
678.109	0.423313
681.002	0.279346
683.894	0.373265
686.787	0.291563
689.68	0.055572
692.572	0.382184
695.465	0.444332
698.358	0.045453
701.251	0.31099
704.143	0.321467
707.036	0.277562
709.929	0.418861
712.821	0.062091
715.714	0.153321
718.607	0.173384
721.5	0.279359
724.392	0.022707
727.285	0.239977
730.178	0.107786
733.07	0.307684
735.963	0.262021
738.856	0.442328
741.749	0.155917
744.641	0.299757
747.534	0.18621
750.427	0.009241
753.319	0.303151
756.212	0.263921
759.105	0.086432
761.997	0.442609
764.89	0.072106
767.783	0.288021
770.676	0.125126
773.568	0.358303
776.461	0.3336
779.354	0.147352
782.246	0.32008
785.139	0.28167
788.032	0.055815
790.924	0.011522
793.817	0.338656
796.71	0.242185
799.602	0.25086
802.495	0.182642
805.388	0.406641
808.281	0.294663
811.173	0.574293
814.066	0.336163
816.959	0.439485
819.851	0.567931
822.744	0.550567
825.637	0.508425
828.529	0.512837
831.422	0.676189
834.315	0.603673
837.208	0.702256
840.1	0.721727
842.993	0.931044
845.886	0.962925
848.778	1.041
851.671	1.19763
854.564	0.922067
857.457	1.11095
860.349	0.851119
863.242	1.09942
866.135	0.627287
869.027	0.49716
871.92	0.500164
874.813	0.787289
877.705	0.371568
880.598	0.238004
883.491	0.600997
886.384	0.652024
889.276	0.414378
892.169	0.335028
895.062	0.045281
897.954	0.369402
900.847	0.326387
903.74	0.221165
906.632	0.037921
909.525	0.160995
912.418	0.331278
915.311	0.036576
918.203	0.219584
921.096	0.245908
923.989	0.710856
926.881	0.016068
929.774	0.582899
932.667	0.45239
935.559	0.238947
938.452	0.471348
941.345	0.155896
944.238	0.346667
947.13	0.407809
950.023	0.592657
952.916	0.341663
955.808	0.47427
958.701	0.405285
961.594	0.149114
964.486	0.294136
967.379	0.127395
970.272	0.428748
973.165	0.296825
976.057	0.125841
978.95	0.174055
981.843	0.164141
984.735	0.368117
987.628	0.36563
990.521	0.127896
993.413	0.421671
996.306	0.088224
999.199	0.345942
1002.09	0.087608
1004.98	0.440272
1007.88	0.109512
1010.77	0.109005
1013.66	0.344425
1016.55	0.271468
1019.45	0.282648
1022.34	0.295869
1025.23	0.332292
1028.13	0.377623
1031.02	0.261973
1033.91	0.346209
1036.8	0.513429
1039.7	0.198233
1042.59	0.426769
1045.48	0.234438
1048.38	0.174808
1051.27	0.016045
1054.16	0.390535
1057.05	0.254491
1059.95	0.402102
1062.84	0.679652
1065.73	0.215393
1068.62	0.305223
1071.52	0.207515
1074.41	0.411477
1077.3	0.511703
1080.19	0.2633
1083.09	0.23405
1085.98	0.465891
1088.87	0.100474
1091.77	0.387532
1094.66	0.357997
1097.55	0.174834
1100.44	0.425108
1103.34	0.384806
1106.23	0.367607
1109.12	0.536952
1112.01	0.171898
1114.91	0.132891
1117.8	0.150986
1120.69	0.029055
1123.59	0.803855
1126.48	0.447774
1129.37	0.299164
1132.26	0.263081
1135.16	0.455066
1138.05	0.460825
1140.94	0.12148
1143.83	0.459177
1146.73	0.112347
1149.62	0.445864
1152.51	0.493799
1155.4	0.378901
1158.3	0.378681
1161.19	0.443804
1164.08	0.384305
1166.98	0.29193
1169.87	0.458405
1172.76	0.07864
1175.65	0.101952
1178.55	0.328837
1181.44	0.168935
1184.33	0.63479
1187.22	0.123028
1190.12	0.309157
1193.01	0.273316
1195.9	0.403301
1198.8	0.306102
1201.69	0.16564
1204.58	0.425237
1207.47	0.382153
1210.37	0.121414
1213.26	0.464734
1216.15	0.278092
1219.04	0.368736
1221.94	0.446912
1224.83	0.238274
1227.72	0.390221
1230.62	0.490195
1233.51	0.246724
1236.4	0.198227
1239.29	0.370753
1242.19	0.39343
1245.08	0.462831
1247.97	0.238204
1250.86	0.360675
1253.76	0.282053
1256.65	0.204201
1259.54	0.365962
1262.43	0.223023
1265.33	0.477787
1268.22	0.629887
1271.11	0.025015
1274.01	0.476263
1276.9	0.009869
1279.79	0.349828
1282.68	0.200366
1285.58	0.016771
