Measurement: Raman, 780 nm, unoriented, Raman Data RAW
Mineral: Cornetite
Rruff sample: R050151
Ideal chemistry: Cu^2+^_3_P^5+^O_4_(OH)_3_
Locality: Manto Russo, El Salado, Chile
Source: Jim McGlasson
Description: Druse of blue short prismatic crystals
Measured chemistry: Cu_3.00_P_1.00_O_4_(OH)_3_
Raman shift (cm-1)	intensity
93.4668	42.2254
96.8416	39.9882
100.216	35.9785
103.591	33.8741
106.966	32.9096
110.341	29.7219
113.716	31.0605
117.091	29.7571
120.465	29.8587
123.84	30.4366
127.215	30.5108
130.59	28.5278
133.965	28.4555
137.339	27.3832
140.714	26.6929
144.089	26.4578
147.464	25.5605
150.839	24.9054
154.214	24.7508
157.588	23.6909
160.963	23.7077
164.338	22.8966
167.713	23.269
171.088	23.1733
174.462	24.2017
177.837	22.655
181.212	23.127
184.587	23.1063
187.962	22.7892
191.337	22.6429
194.711	22.6743
198.086	22.7603
201.461	22.7407
204.836	22.4555
208.211	22.838
211.585	22.8839
214.96	22.5065
218.335	22.7257
221.71	22.8033
225.085	22.8607
228.459	22.8652
231.834	21.9909
235.209	22.9538
238.584	22.8945
241.959	22.0166
245.333	22.1801
248.708	21.8404
252.083	22.1009
255.458	21.9833
258.833	21.4605
262.208	22.0053
265.582	21.8419
268.957	22.0239
272.332	21.082
275.707	20.7636
279.082	21.0265
282.457	20.8274
285.831	21.73
289.206	20.5186
292.581	21.1186
295.956	20.2932
299.331	20.4294
302.705	20.0484
306.08	20.2361
309.455	20.0167
312.83	20.0396
316.205	19.0607
319.579	19.8981
322.954	19.2111
326.329	19.4282
329.704	19.2806
333.079	19.3515
336.454	18.3731
339.828	19.1165
343.203	18.5686
346.578	18.8388
349.953	18.5605
353.328	18.1032
356.702	18.1832
360.077	18.2631
363.452	18.0597
366.827	17.3821
370.202	17.3353
373.577	17.2216
376.951	17.5138
380.326	17.5945
383.701	17.3781
387.076	17.157
390.451	16.3534
393.825	16.5582
397.2	16.168
400.575	16.4838
403.95	16.3234
407.325	16.5656
410.7	16.5076
414.074	16.4283
417.449	16.2684
420.824	15.4572
424.199	16.2007
427.574	16.9806
430.948	15.9167
434.323	15.6944
437.698	15.7666
441.073	15.6732
444.448	15.6967
447.822	15.5083
451.197	14.8271
454.572	14.8679
457.947	15.5165
461.322	14.8858
464.697	15.6128
468.071	15.5521
471.446	15.5204
474.821	15.1611
478.196	15.6833
481.571	15.6813
484.945	15.4678
488.32	15.1634
491.695	14.5958
495.07	15.9038
498.445	14.8848
501.82	14.9861
505.194	15.1736
508.569	15.2177
511.944	15.1827
515.319	14.5856
518.694	14.2567
522.068	14.4763
525.443	15.1923
528.818	14.6059
532.193	14.5079
535.568	14.4632
538.943	13.5297
542.317	14.3375
545.692	14.1867
549.067	14.1163
552.442	14.9354
555.817	15.0257
559.192	13.6857
562.566	14.1271
565.941	13.9532
569.316	14.7687
572.691	14.4138
576.066	14.4195
579.44	13.8642
582.815	14.0276
586.19	14.0502
589.565	14.19
592.94	14.0648
596.314	14.0478
599.689	14.0992
603.064	13.7837
606.439	13.7165
609.814	14.6531
613.188	14.1319
616.563	14.023
619.938	14.4134
623.313	14.678
626.688	14.4777
630.063	14.8204
633.437	15.1502
636.812	14.3511
640.187	14.4996
643.562	14.593
646.937	15.0031
650.312	14.6066
653.686	15.3438
657.061	14.8388
660.436	15.5674
663.811	14.7473
667.186	15.1289
670.56	15.4059
673.935	15.4994
677.31	15.5437
680.685	15.459
684.06	15.3835
687.434	15.366
690.809	15.4557
694.184	15.6396
697.559	16.2585
700.934	15.6343
704.308	16.1569
707.683	15.9141
711.058	16.1455
714.433	16.277
717.808	16.0657
721.183	16.0745
724.557	16.5522
727.932	16.1313
731.307	16.8017
734.682	16.8944
738.057	17.0217
741.432	17.2207
744.806	16.4517
748.181	16.9691
751.556	17.9784
754.931	17.9548
758.306	17.7584
761.68	18.0556
765.055	17.6205
768.43	17.7499
771.805	18.4476
775.18	18.4874
778.554	18.688
781.929	19.1932
785.304	18.8713
788.679	19.5044
792.054	19.9499
795.429	18.9491
798.803	19.559
802.178	19.5574
805.553	19.9356
808.928	19.5927
812.303	20.2185
815.678	19.9656
819.052	20.3424
822.427	20.2095
825.802	20.7759
829.177	20.5129
832.552	20.405
835.926	20.5985
839.301	20.2969
842.676	21.1685
846.051	20.8325
849.426	20.9294
852.801	20.0879
856.175	20.4304
859.55	19.969
862.925	19.6356
866.3	20.16
869.675	19.0994
873.049	19.1568
876.424	18.6473
879.799	18.1549
883.174	17.7372
886.549	17.1045
889.923	16.7229
893.298	16.558
896.673	16.5713
900.048	16.2293
903.423	16.66
906.798	15.6756
910.172	15.2022
913.547	14.9167
916.922	14.224
920.297	14.8269
923.672	14.4602
927.046	14.6508
930.421	14.4442
933.796	14.2359
937.171	13.7207
940.546	14.0956
943.92	14.1703
947.295	14.4084
950.67	14.4231
954.045	15.0351
957.42	15.4512
960.795	15.0809
964.169	14.012
967.544	14.1469
970.919	14.6068
974.294	13.9229
977.669	13.8094
981.043	12.4912
984.418	13.1358
987.793	12.8428
991.168	13.3059
994.543	12.8068
997.918	12.9502
1001.29	12.2855
1004.67	12.708
1008.04	12.7866
1011.42	12.3141
1014.79	12.9459
1018.17	11.7162
1021.54	12.7341
1024.92	12.5676
1028.29	12.5819
1031.67	12.769
1035.04	12.4408
1038.41	12.7235
1041.79	12.2409
1045.16	12.4465
1048.54	12.0662
1051.91	12.0739
1055.29	11.6052
1058.66	11.9421
1062.04	11.7173
1065.41	12.4724
1068.79	11.8579
1072.16	11.7818
1075.54	10.9075
1078.91	11.5715
1082.29	11.7098
1085.66	11.7194
1089.04	11.2508
1092.41	11.2171
1095.79	11.3317
1099.16	11.1636
1102.54	11.5323
1105.91	10.8893
1109.29	10.8088
1112.66	11.1446
1116.04	10.9254
1119.41	10.7487
1122.79	10.7167
1126.16	11.0137
1129.54	11.1215
1132.91	11.1883
1136.29	10.9208
1139.66	10.9399
1143.04	10.5271
1146.41	10.3592
1149.78	9.95616
1153.16	10.5848
1156.53	11.2876
1159.91	10.2507
1163.28	11.5728
1166.66	10.8518
1170.03	11.0013
1173.41	11.51
1176.78	10.2359
1180.16	11.0816
1183.53	10.9209
1186.91	11.0424
1190.28	10.7849
1193.66	11.2387
1197.03	10.7867
1200.41	11.1256
1203.78	10.7922
1207.16	10.4163
1210.53	10.8528
1213.91	11.0426
1217.28	11.226
1220.65	11.1642
1224.03	10.7867
1227.4	11.9545
1230.78	11.1139
1234.15	10.0085
1237.53	11.6302
1240.9	11.1914
1244.28	11.2597
1247.65	10.9653
1251.03	11.2538
1254.4	11.5771
1257.78	11.4858
1261.15	11.1921
1264.53	11.4299
1267.9	11.3831
1271.28	11.6779
1274.65	11.1986
1278.03	11.3391
1281.4	11.4391
1284.78	11.3127
