Measurement: Raman, 780 nm, unoriented, Raman Data Processed
Mineral: Coronadite
Rruff sample: R090056
Ideal chemistry: Pb^2+^(Mn^4+^_6_Mn^3+^_2_)O_16_
Locality: Taouz, Er Rachidia Province, Mekn√®s-Tafilalet Region, Morocco
Source: Bob Downs
Description: Spherical aggregates of black fine-grained material associated with vanadinite
Raman shift (cm-1)	intensity
144.576	0
147.469	1.21508
150.362	1.08512
153.254	1.23252
156.147	1.46328
159.04	0.786715
161.932	1.63043
164.825	1.81914
167.718	1.16212
170.61	0.64549
173.503	0.000237
176.396	0.117859
179.288	1.56833
182.181	1.23961
185.074	0.84092
187.966	1.62468
190.859	1.27917
193.752	0.574752
196.645	1.12238
199.537	0.256734
202.43	0.137592
205.323	0.305652
208.215	0.806736
211.108	0.550373
214.001	1.22583
216.893	2.87474
219.786	2.21079
222.679	3.41954
225.572	3.74605
228.464	5.90999
231.357	3.92631
234.25	5.04267
237.142	4.68646
240.035	5.99739
242.928	5.47234
245.821	6.43563
248.713	6.31931
251.606	5.57026
254.499	2.81002
257.391	1.40751
260.284	0.007059
263.177	1.58534
266.069	1.11342
268.962	0.061537
271.855	0.182196
274.748	1.15006
277.64	0.768835
280.533	0.016503
283.426	0.236129
286.318	0.642498
289.211	1.07859
292.104	1.40092
294.996	1.67036
297.889	1.89236
300.782	1.14044
303.675	0.037298
306.567	0.116125
309.46	2.2857
312.353	1.39306
315.245	0.638423
318.138	2.48555
321.031	2.14112
323.923	1.86911
326.816	2.47356
329.709	2.90174
332.601	1.69368
335.494	1.96539
338.387	1.99401
341.279	2.98155
344.172	2.88512
347.065	4.44718
349.958	2.93454
352.85	1.84072
355.743	1.60381
358.636	1.63403
361.528	1.63392
364.421	0.362371
367.314	0.54182
370.207	4.03653
373.099	1.11238
375.992	0.471485
378.885	0.119682
381.777	1.11638
384.67	0.006727
387.563	0.408595
390.455	0.628228
393.348	0.617754
396.241	2.98874
399.134	1.45227
402.026	0.482329
404.919	0.611802
407.812	0.221952
410.704	0.73436
413.597	0.240025
416.49	1.07367
419.382	2.00872
422.275	1.65492
425.168	1.5666
428.06	0.834072
430.953	2.31018
433.846	1.45926
436.739	1.80076
439.631	0.320352
442.524	0.593454
445.417	2.29236
448.309	0.063583
451.202	2.39198
454.095	2.71844
456.988	3.14989
459.88	2.62723
462.773	0.097308
465.666	2.37412
468.558	1.51242
471.451	1.12511
474.344	3.21331
477.236	5.19909
480.129	1.44961
483.022	1.0775
485.914	2.32585
488.807	2.3989
491.7	3.24698
494.592	1.09896
497.485	3.7416
500.378	2.95268
503.271	1.6361
506.163	0.316118
509.056	1.04804
511.949	0.530962
514.841	2.10028
517.734	0.958063
520.627	0.419145
523.519	2.2436
526.412	0.521993
529.305	0.356727
532.198	1.85484
535.09	0.572167
537.983	0.175802
540.876	2.23362
543.768	1.41999
546.661	0.733208
549.554	1.49043
552.447	0.810265
555.339	1.14134
558.232	0.087467
561.125	2.75285
564.017	0.044366
566.91	0.292217
569.803	2.01569
572.695	0.601872
575.588	0.179218
578.481	4.08708
581.374	0.232046
584.266	1.64381
587.159	1.13686
590.052	0.943963
592.944	2.06839
595.837	1.16962
598.73	3.26099
601.622	0.653213
604.515	1.83653
607.408	0.067868
610.301	4.23621
613.193	1.03465
616.086	2.64007
618.979	2.90536
621.871	3.68552
624.764	2.40466
627.657	1.20826
630.549	2.67109
633.442	2.30765
636.335	4.63449
639.227	3.58152
642.12	2.63836
645.013	2.37799
647.905	2.62202
650.798	1.89922
653.691	1.87156
656.584	0.181001
659.476	0.741024
662.369	0.620785
665.262	0.005734
668.154	0.373398
671.047	1.29685
673.94	1.08744
676.832	0.99505
679.725	1.39389
682.618	0.08989
685.511	1.51854
688.403	0.473027
691.296	1.01455
694.189	0.048296
697.081	0.358495
699.974	2.29372
702.867	1.17623
705.76	0.930352
708.652	1.44019
711.545	3.95452
714.438	1.50794
717.33	2.4439
720.223	1.43026
723.116	1.74407
726.008	1.06997
728.901	0.315833
731.794	2.45719
734.687	0.997771
737.579	2.65111
740.472	2.57726
743.365	2.91519
746.257	1.60839
749.15	0.84169
752.043	2.88161
754.935	0.526722
757.828	1.30995
760.721	0.444307
763.614	0.178125
766.506	0.409515
769.399	0.198701
772.292	1.50489
775.184	1.79232
778.077	0.467731
780.97	2.84504
783.862	0.035791
786.755	0.056185
789.648	3.6866
792.54	1.43389
795.433	3.78302
798.326	3.37764
801.218	2.69987
804.111	0.401677
807.004	5.08552
809.897	2.65647
812.789	3.73872
815.682	0.040628
818.575	4.57455
821.467	2.16207
824.36	3.56114
827.253	1.91156
830.145	3.16822
833.038	3.93165
835.931	4.18463
838.824	4.76577
841.716	3.87234
844.609	2.50874
847.502	1.07497
850.394	2.73631
853.287	2.65674
856.18	0.6191
859.072	2.09536
861.965	1.75571
864.858	0.389679
867.751	2.03294
870.643	1.63937
873.536	2.36758
876.429	1.73383
879.321	1.32924
882.214	1.29983
885.107	3.57388
888	3.72083
890.892	3.44541
893.785	3.8984
896.678	2.92762
899.57	1.44734
902.463	1.0741
905.356	0.992342
908.248	3.08863
911.141	0.28241
914.034	3.10507
916.927	0.367455
919.819	2.26534
922.712	0.497705
925.605	0.70203
928.497	0.313577
931.39	3.08012
934.283	2.71241
937.175	2.63732
940.068	2.58199
942.961	2.81355
945.854	0.678851
948.746	4.51106
951.639	1.7503
954.532	4.62087
957.424	2.97392
960.317	3.9751
963.21	0.016158
966.102	0.0296
968.995	4.79959
971.888	3.09295
974.78	0.211751
977.673	1.01233
980.566	0.916256
983.458	0.25671
986.351	1.2509
989.244	2.24296
992.137	0.766397
995.029	2.24945
997.922	2.73276
1000.82	4.36602
1003.71	2.83777
1006.6	3.45076
1009.49	1.70925
1012.38	0.769647
1015.28	1.80995
1018.17	1.83671
1021.06	0.296053
1023.96	2.94192
1026.85	4.15025
1029.74	1.22921
1032.63	3.02233
1035.53	1.67372
1038.42	1.22836
1041.31	0.044247
1044.2	1.94104
1047.1	2.22495
1049.99	1.84073
1052.88	1.53852
1055.78	1.10799
1058.67	3.30717
1061.56	5.9089
1064.45	3.57127
1067.35	3.19946
1070.24	0.242534
1073.13	2.31929
1076.03	5.69369
1078.92	0.963604
1081.81	3.20596
1084.7	4.62383
1087.6	2.58398
1090.49	1.58142
1093.38	5.67947
1096.27	1.42164
1099.17	0.613353
1102.06	0.92187
1104.95	4.29646
1107.84	0.256701
1110.74	1.46718
1113.63	0.44552
1116.52	0.237374
1119.41	2.03901
1122.31	0.862226
1125.2	3.79085
1128.09	0.448594
1130.99	2.61014
1133.88	2.16415
1136.77	1.3144
1139.66	4.44905
1142.56	2.32081
1145.45	2.33047
1148.34	6.04183
1151.23	2.14637
1154.13	6.24605
1157.02	0.795007
1159.91	1.59253
1162.81	2.60767
1165.7	2.47395
1168.59	0.019667
1171.48	2.37463
1174.38	4.20233
1177.27	2.51783
1180.16	5.05836
1183.06	4.62316
1185.95	2.68101
1188.84	7.10962
1191.73	2.96909
1194.62	4.64747
1197.52	6.63444
1200.41	2.35016
1203.3	4.19775
1206.2	4.32508
1209.09	3.53159
1211.98	2.80485
1214.87	0.332027
1217.77	2.03375
1220.66	1.07266
1223.55	2.63539
1226.44	1.47927
1229.34	1.24388
1232.23	1.17479
1235.12	1.55888
1238.02	1.42137
1240.91	0.142663
1243.8	0.593601
1246.69	0.179596
1249.59	1.669
1252.48	2.26872
1255.37	1.27986
1258.27	1.61369
1261.16	6.08328
1264.05	3.77816
1266.94	1.26294
1269.84	2.93297
1272.73	5.15196
1275.62	3.54794
1278.51	4.54475
1281.41	0.017861
1284.3	1.36951
