Measurement: Raman, 532 nm, unoriented, Raman Data Processed
Mineral: Coronadite
Rruff sample: R070320
Ideal chemistry: Pb^2+^(Mn^4+^_6_Mn^3+^_2_)O_16_
Locality: Broken Hill, New South Wales, Australia
Source: James Shigley
Description: Dark gray fine-grained aggregate, some thin acicular crystals lining cracks in the rock
Raman shift (cm-1)	intensity
251.871	0
254.281	97.1839
256.692	70.2857
259.102	101.781
261.513	13.7326
263.923	179.812
266.334	191.922
268.745	69.4026
271.155	92.3195
273.566	11.8559
275.976	86.2665
278.387	58.9731
280.798	133.623
283.208	110.89
285.619	190.103
288.029	169.949
290.44	185.419
292.851	142.574
295.261	23.8099
297.672	212.351
300.082	15.5835
302.493	37.3467
304.904	195.593
307.314	139.175
309.725	151.374
312.135	85.2665
314.546	156.059
316.956	108.541
319.367	77.9881
321.778	93.7559
324.188	169.485
326.599	15.8732
329.009	77.5669
331.42	237.319
333.83	120.04
336.241	4.71535
338.652	28.6621
341.062	111.145
343.473	151.832
345.883	66.6794
348.294	128.772
350.705	246.262
353.115	7.97846
355.526	2.09078
357.936	36.5202
360.347	126.356
362.757	74.0751
365.168	11.416
367.579	40.3509
369.989	93.0014
372.4	19.5753
374.81	244.487
377.221	130.478
379.632	10.6492
382.042	8.54605
384.453	14.0466
386.863	52.1885
389.274	130.637
391.685	100.18
394.095	115.087
396.506	126.012
398.916	10.5321
401.327	86.6249
403.737	39.3171
406.148	68.8289
408.559	5.44826
410.969	42.6045
413.38	95.9337
415.79	59.8164
418.201	4.36689
420.611	170.385
423.022	37.174
425.433	31.9007
427.843	72.4979
430.254	9.1164
432.664	58.2345
435.075	41.0146
437.486	47.0127
439.896	45.455
442.307	138.655
444.717	108.163
447.128	57.1557
449.538	19.8621
451.949	104.404
454.36	86.8207
456.77	47.1795
459.181	92.3734
461.591	54.0012
464.002	98.9739
466.413	35.0784
468.823	147.593
471.234	120.876
473.644	78.7078
476.055	195.101
478.466	86.1442
480.876	126.896
483.287	98.7065
485.697	155.237
488.108	135.463
490.519	230.541
492.929	108.874
495.34	151.146
497.75	131.377
500.161	210.297
502.571	107.873
504.982	59.7538
507.393	114.204
509.803	183.201
512.214	119.249
514.624	49.5962
517.035	94.3692
519.446	61.1007
521.856	44.6256
524.267	65.55
526.677	27.3557
529.088	45.3338
531.498	33.6541
533.909	69.883
536.32	161.283
538.73	34.6523
541.141	54.7528
543.551	17.1095
545.962	76.707
548.372	137.845
550.783	170.081
553.194	14.1639
555.604	98.1431
558.015	136.47
560.425	148.088
562.836	150.555
565.247	169.667
567.657	70.2583
570.068	214.536
572.478	107.106
574.889	266.335
577.299	209.775
579.71	255.752
582.121	388.861
584.531	175.256
586.942	166.547
589.352	244.048
591.763	40.7404
594.174	1.51882
596.584	82.663
598.995	159.504
601.405	152.757
603.816	27.4838
606.227	20.9805
608.637	158.688
611.048	119.804
613.458	40.5846
615.869	157.75
618.279	186.226
620.69	156.09
623.101	74.0166
625.511	129.102
627.922	167.565
630.332	119.988
632.743	294.881
635.154	171.084
637.564	11.8224
639.975	268.097
642.385	155.227
644.796	115.773
647.207	193.39
649.617	229.929
652.028	241.65
654.438	93.6859
656.849	251.423
659.259	173.497
661.67	26.5147
664.081	234.503
666.491	133.821
668.902	88.6667
671.312	140.145
673.723	31.8612
676.134	120.961
678.544	37.9897
680.955	64.2686
683.365	156.527
685.776	17.5496
688.186	96.3889
690.597	131.767
693.008	46.8248
695.418	103.315
697.829	158.206
700.239	23.281
702.65	111.858
705.061	205.355
707.471	113.308
709.882	29.8368
712.292	26.9414
714.703	215.35
717.113	41.2795
719.524	45.1398
721.935	12.9212
724.345	2.58
726.756	112.283
729.166	101.255
731.577	181.45
733.987	65.4269
736.398	6.78396
738.809	33.4105
741.219	152.361
743.63	98.471
746.04	158.104
748.451	48.841
750.862	149.23
753.272	169.765
755.683	210.875
758.093	169.266
760.504	6.02839
762.915	216.97
765.325	170.601
767.736	70.9536
770.146	120.608
772.557	157.538
774.967	244.389
777.378	13.2007
779.789	225.574
782.199	63.4948
784.61	176.541
787.02	9.25098
789.431	130.192
791.842	62.6947
794.252	0.529959
796.663	114.669
799.073	133.469
801.484	69.8688
803.894	25.762
806.305	47.7409
808.716	92.9044
811.126	59.4551
813.537	128.335
815.947	171.371
818.358	143.717
820.769	57.3268
823.179	49.5733
825.59	122.985
828	112.219
830.411	292.02
832.822	31.2171
835.232	3.85615
837.643	22.9757
840.053	4.86108
842.464	65.524
844.874	34.3747
847.285	146.645
849.696	28.3055
852.106	132.713
854.517	75.4335
856.927	76.8859
859.338	126.767
861.749	7.63809
864.159	5.81538
866.57	67.0528
868.98	41.6291
871.391	48.4923
873.801	181.209
876.212	182.283
878.623	14.3334
881.033	110.49
883.444	27.3283
885.854	138.356
888.265	226.83
890.676	210.978
893.086	15.0917
895.497	72.5903
897.907	68.5955
900.318	242.321
902.729	195.101
905.139	202.336
907.55	14.6578
909.96	185.119
912.371	202.939
914.781	45.2571
917.192	137.399
919.602	71.7348
922.013	132.03
924.424	236.593
926.834	35.9445
929.245	163.196
931.655	152.905
934.066	121.258
936.477	67.6002
938.887	215.348
941.298	181.797
943.708	139.575
946.119	97.8933
948.529	182.77
950.94	183.899
953.351	79.9134
955.761	19.5953
958.172	172.738
960.582	240.268
962.993	14.7191
965.404	167.708
967.814	85.44
970.225	5.40689
972.635	32.1147
975.046	111.103
977.457	99.1954
979.867	107.814
982.278	122.772
984.688	15.1371
987.099	167.593
989.51	3.95268
991.92	72.6093
994.331	184.145
996.741	138.272
999.152	101.063
1001.56	63.0129
1003.97	94.9053
1006.38	8.38598
1008.79	178.751
1011.21	61.9576
1013.62	73.1793
1016.03	66.4898
1018.44	75.8863
1020.85	64.5729
1023.26	16.7709
1025.67	136.393
1028.08	9.61704
1030.49	54.722
1032.9	134.002
1035.31	46.4914
1037.72	64.8793
1040.13	301.898
1042.54	18.3784
1044.95	161.021
1047.36	52.6009
1049.77	0.665171
1052.18	97.9472
1054.6	124.923
1057.01	41.5234
1059.42	76.6467
1061.83	155.149
1064.24	152.306
1066.65	246.498
1069.06	148.31
1071.47	1.53667
1073.88	217.901
1076.29	79.7988
1078.7	7.41462
1081.11	197.92
1083.52	191.821
1085.93	95.7791
1088.34	77.0834
1090.75	19.0124
1093.16	52.0838
1095.58	126.149
1097.99	147.404
1100.4	0.342388
1102.81	241.45
1105.22	106.707
1107.63	22.181
1110.04	151.506
1112.45	54.1652
1114.86	190.25
1117.27	5.00795
1119.68	96.5406
1122.09	9.33725
1124.5	40.8492
1126.91	99.8899
1129.32	114.451
1131.73	292.474
1134.14	193.606
1136.56	242.649
1138.97	90.9536
1141.38	190.584
1143.79	200.178
1146.2	236.612
1148.61	186.673
1151.02	200.458
1153.43	161.309
1155.84	263.618
1158.25	207.399
1160.66	164.613
1163.07	55.6287
1165.48	197.704
1167.89	401.745
1170.3	7.3655
1172.71	58.0391
1175.12	262.909
1177.54	181.451
1179.95	178.705
1182.36	288.584
1184.77	99.0901
1187.18	282.136
1189.59	211.162
1192	87.4378
1194.41	249.711
1196.82	222.273
1199.23	20.0781
1201.64	100.824
1204.05	193.36
1206.46	43.5062
1208.87	14.0015
1211.28	163.497
1213.69	92.8602
