Measurement: Raman, 785 nm, unoriented, Raman Data Processed
Mineral: Coronadite
Rruff sample: R070320
Ideal chemistry: Pb^2+^(Mn^4+^_6_Mn^3+^_2_)O_16_
Locality: Broken Hill, New South Wales, Australia
Source: James Shigley
Description: Dark gray fine-grained aggregate, some thin acicular crystals lining cracks in the rock
Raman shift (cm-1)	intensity
182.73	0
185.623	42.718
188.516	27.3884
191.408	26.7832
194.301	42.3257
197.194	36.0715
200.087	44.2175
202.979	56.5107
205.872	22.3196
208.765	43.3789
211.657	16.7659
214.55	15.1291
217.443	33.7212
220.335	43.9114
223.228	65.4734
226.121	33.125
229.013	52.2329
231.906	27.2505
234.799	18.3232
237.692	18.186
240.584	26.7136
243.477	44.8577
246.37	48.1831
249.262	32.1929
252.155	38.7563
255.048	52.1274
257.941	32.1633
260.833	47.4241
263.726	54.3023
266.619	91.6899
269.511	102.765
272.404	92.6572
275.297	85.7229
278.19	51.8484
281.082	85.3709
283.975	69.6326
286.868	91.2678
289.76	70.4722
292.653	81.3769
295.546	49.6143
298.438	45.3648
301.331	30.5747
304.224	40.9714
307.116	98.2302
310.009	5.95825
312.902	73.3005
315.795	26.1916
318.687	43.5049
321.58	48.8391
324.473	10.9878
327.365	20.4214
330.258	28.0879
333.151	31.2993
336.043	16.9651
338.936	4.97607
341.829	6.9939
344.721	35.0193
347.614	34.897
350.507	21.9651
353.4	17.3899
356.292	52.802
359.185	6.71582
362.078	61.6086
364.97	31.3618
367.863	41.9663
370.756	32.9773
373.649	83.2852
376.541	50.9565
379.434	67.9412
382.327	20.7148
385.219	13.429
388.112	65.2241
391.005	32.5798
393.897	60.6018
396.79	65.3784
399.683	17.8838
402.575	52.2217
405.468	50.1121
408.361	60.0125
411.254	1.40674
414.146	52.3613
417.039	32.6426
419.932	64.1201
422.824	20.5698
425.717	20.1492
428.61	6.48608
431.502	32.1875
434.395	2.95361
437.288	48.8188
440.181	65.5149
443.073	26.3545
445.966	1.36255
448.859	45.0579
451.751	42.9482
454.644	49.6604
457.537	41.4131
460.43	54.8674
463.322	59.0264
466.215	62.2156
469.108	59.5642
472	75.8564
474.893	75.3616
477.786	88.0354
480.678	80.1709
483.571	44.9011
486.464	134.328
489.356	72.5225
492.249	111.203
495.142	89.5688
498.035	58.0659
500.927	71.8267
503.82	19.5947
506.713	104.928
509.605	69.418
512.498	34.8511
515.391	57.3308
518.284	48.0688
521.176	29.0776
524.069	26.0183
526.962	20.6155
529.854	3.97241
532.747	2.19287
535.64	3.57861
538.533	38.4495
541.425	25.2405
544.318	24.2205
547.211	55.6174
550.103	28.5828
552.996	53.2727
555.889	69.5894
558.781	99.98
561.674	126.707
564.567	206.98
567.459	221.289
570.352	299.665
573.245	311.512
576.138	377.43
579.03	419.571
581.923	422.482
584.816	374.115
587.708	360.698
590.601	335.486
593.494	246.091
596.386	247.099
599.279	221.395
602.172	200.407
605.064	217.337
607.957	192.805
610.85	166.062
613.743	199.679
616.635	169.394
619.528	164.933
622.421	141.92
625.313	154.557
628.206	145.406
631.099	110.081
633.991	109.374
636.884	118.133
639.777	55.0955
642.67	63.679
645.562	48.1428
648.455	43.3713
651.348	72.2476
654.24	58.2537
657.133	61.4321
660.026	40.9853
662.918	2.65503
665.811	42.7681
668.704	20.2009
671.597	18.1001
674.489	20.5579
677.382	0.926025
680.275	20.459
683.167	1.52905
686.06	20.9824
688.953	9.19019
691.846	42.6477
694.738	19.1484
697.631	51.3852
700.524	19.6348
703.416	13.7329
706.309	35.1357
709.202	53.459
712.094	19.6362
714.987	19.9702
717.88	41.6819
720.773	8.65161
723.665	29.6228
726.558	25.6868
729.451	30.8616
732.343	56.8408
735.236	12.3467
738.129	41.6367
741.021	11.0425
743.914	48.0789
746.807	40.0603
749.699	27.01
752.592	51.4228
755.485	34.0476
758.378	28.3601
761.27	38.3394
764.163	55.6917
767.056	2.21655
769.948	57.1724
772.841	59.5461
775.734	2.61157
778.626	47.063
781.519	13.3738
784.412	0.202881
787.305	6.06763
790.197	11.7109
793.09	36.3035
795.983	77.3333
798.875	25.3987
801.768	1.1272
804.661	56.1726
807.553	45.3264
810.446	66.1621
813.339	50.8862
816.232	45.3706
819.124	34.748
822.017	32.9707
824.91	78.3032
827.802	43.4187
830.695	74.2639
833.588	51.6895
836.481	47.947
839.373	63.4932
842.266	22.6694
845.159	69.2832
848.051	3.1106
850.944	21.8445
853.837	40.4502
856.729	50.894
859.622	66.9477
862.515	61.5635
865.408	52.9246
868.3	25.4575
871.193	32.0349
874.086	24.2766
876.978	19.0129
879.871	0.061279
882.764	21.0183
885.656	21.1633
888.549	12.6494
891.442	73.9961
894.335	55.7014
897.227	49.5967
900.12	57.7322
903.013	25.1477
905.905	0.166992
908.798	45.4023
911.691	14.8062
914.583	63.3796
917.476	19.5259
920.369	44.4307
923.261	46.1558
926.154	49.4224
929.047	18.3762
931.94	23.8999
934.832	47.865
937.725	30.4407
940.618	69.321
943.51	64.8298
946.403	52.3506
949.296	55.3003
952.188	77.2331
955.081	38.9722
957.974	55.3003
960.867	12.1197
963.759	51.8685
966.652	23.7904
969.545	32.4918
972.437	39.4174
975.33	19.9533
978.223	17.6923
981.115	3.97803
984.008	39.0925
986.901	77.4081
989.794	13.0529
992.686	5.40955
995.579	1.74707
998.472	28.499
1001.36	10.153
1004.26	53.8013
1007.15	44.5437
1010.04	40.9078
1012.93	73.4696
1015.83	53.5914
1018.72	40.8212
1021.61	31.3678
1024.51	54.5411
1027.4	23.8263
1030.29	27.798
1033.18	38.8656
1036.08	27.6621
1038.97	55.3077
1041.86	29.2227
1044.76	7.2063
1047.65	47.4674
1050.54	37.2146
1053.43	27.8378
1056.33	41.5727
1059.22	41.9721
1062.11	22.1879
1065	0.505859
1067.9	2.06042
1070.79	26.3184
1073.68	45.0045
1076.58	25.6122
1079.47	54.225
1082.36	75.6344
1085.25	51.4059
1088.14	7.83252
1091.04	38.0675
1093.93	29.9901
1096.82	29.6276
1099.72	20.67
1102.61	43.5891
1105.5	29.9258
1108.39	63.4398
1111.29	31.979
1114.18	2.72437
1117.07	34.358
1119.96	71.892
1122.86	42.7042
1125.75	48.7744
1128.64	34.212
1131.54	42.8698
1134.43	20.0547
1137.32	26.631
1140.21	54.5601
1143.11	44.8049
1146	6.06201
1148.89	31.3031
1151.79	67.8929
1154.68	40.3646
1157.57	37.2367
1160.46	52.6532
1163.36	54.8665
1166.25	31.3358
1169.14	29.4539
1172.03	14.1183
1174.93	15.146
1177.82	61.7259
1180.71	38.3351
1183.6	25.002
1186.5	42.2472
1189.39	7.67456
1192.28	47.2937
1195.17	4.09192
1198.07	29.9465
1200.96	17.4062
1203.85	20.1486
1206.75	20.6497
1209.64	23.9468
1212.53	25.1508
1215.42	8.03857
1218.32	27.8377
1221.21	31.3262
1224.1	28.8425
1226.99	23.4292
