Measurement: Raman, 780 nm, unoriented, Raman Data Processed
Mineral: Corundum
Rruff sample: R110111
Ideal chemistry: Al_2_O_3_
Locality: Synthetic
Source: Gemological Institute of America
Description: A cut, red (1.07ct) ruby gemstone, flux grown.
Raman shift (cm-1)	intensity
97.871	83903
101.246	82971.2
104.621	83141.8
107.996	83862.5
111.37	84673.7
114.745	85291.8
118.12	85886.2
121.495	86495.1
124.87	87143
128.244	87945.7
131.619	88641.5
134.994	89393.8
138.369	90214.4
141.744	90742.9
145.119	91196.8
148.493	91226
151.868	91085.6
155.243	90830.3
158.618	90378.4
161.993	89699.9
165.367	89158.6
168.742	88602.7
172.117	87997.3
175.492	87313.7
178.867	86849.5
182.242	86348.4
185.616	85783.6
188.991	85276
192.366	84887.8
195.741	84353.4
199.115	83757.5
202.49	82962.5
205.865	82186.7
209.24	81329.6
212.615	80324.1
215.99	79316.4
219.364	78255.9
222.739	77305.8
226.114	76149.5
229.489	74976.2
232.864	73877.4
236.238	72893.1
239.613	71808
242.988	70658
246.363	69581.6
249.738	68529
253.113	67457.3
256.487	66258.6
259.862	65267.6
263.237	64179
266.612	63055.3
269.987	62055.1
273.361	60808.9
276.736	59746.1
280.111	58708.1
283.486	57655.3
286.861	56504.8
290.236	55470.2
293.61	54518.7
296.985	53523.7
300.36	52571.5
303.735	51690
307.11	50874.1
310.485	50071.9
313.859	49243.5
317.234	48552.8
320.609	47741
323.984	47078.1
327.359	46298.2
330.733	45668.3
334.108	45031.8
337.483	44487.7
340.858	43870.5
344.233	43252.6
347.608	42676.5
350.982	42074.8
354.357	41567.5
357.732	41059.5
361.107	40511.8
364.482	40015.2
367.856	39586
371.231	39265.7
374.606	38847.6
377.981	38589.9
381.356	37932.7
384.731	37544.5
388.105	37101.1
391.48	36732.2
394.855	36351
398.23	36020.7
401.605	35747.7
404.979	35472.4
408.354	35193.7
411.729	35052.2
415.104	35172.1
418.479	34698.5
421.853	34227.1
425.228	33803.6
428.603	33609.8
431.978	33343.4
435.353	33034.2
438.728	32795.1
442.102	32544.5
445.477	32270.2
448.852	32033.1
452.227	31752.5
455.602	31490.8
458.976	31224.5
462.351	30930.2
465.726	30636.5
469.101	30390.4
472.476	30167.8
475.851	29855.3
479.225	29530.8
482.6	29260.1
485.975	28983.3
489.35	28727.6
492.725	28390.7
496.099	28138.1
499.474	27856.9
502.849	27582
506.224	27235.8
509.599	27009
512.973	26663.4
516.348	26404.1
519.723	26001.8
523.098	25679.7
526.473	25347.3
529.848	24978.5
533.222	24667.5
536.597	24381.5
539.972	24030.6
543.347	23709.1
546.722	23373.8
550.096	23075.8
553.471	22800.6
556.846	22487.7
560.221	22193.2
563.596	21856.8
566.971	21538.5
570.345	21224.3
573.72	20920.7
577.095	20652.8
580.47	20352.2
583.845	20014.1
587.22	19742.9
590.594	19428.2
593.969	19179.1
597.344	18883.7
600.719	18571.5
604.094	18334.4
607.468	18029.8
610.843	17758
614.218	17495.4
617.593	17227.4
620.968	16939.9
624.342	16704.8
627.717	16460.8
631.092	16212.1
634.467	16026.1
637.842	15795.2
641.217	15621.4
644.591	15382.4
647.966	15094.1
651.341	14832.1
654.716	14553.1
658.091	14325.4
661.466	14115.2
664.84	13876.8
668.215	13699.6
671.59	13483.6
674.965	13286.6
678.34	13080.6
681.714	12909.6
685.089	12703.1
688.464	12560.8
691.839	12365.3
695.214	12173.3
698.588	11996.9
701.963	11848.5
705.338	11698.1
708.713	11533.6
712.088	11389.9
715.463	11253.1
718.837	11131.1
722.212	10972.5
725.587	10842.6
728.962	10735.6
732.337	10623.8
735.712	10447.1
739.086	10320.7
742.461	10181.8
745.836	10107.9
749.211	9978.1
752.586	9831.45
755.96	9714.86
759.335	9595.7
762.71	9483.19
766.085	9349.35
769.46	9240.47
772.835	9125.56
776.209	9027.48
779.584	8919.75
782.959	8821.35
786.334	8708.62
789.709	8605.98
793.083	8561.57
796.458	8449.22
799.833	8317.36
803.208	8205.9
806.583	8156.04
809.957	8043.61
813.332	7948.52
816.707	7851.46
820.082	7762.62
823.457	7664.02
826.832	7551.86
830.206	7462.59
833.581	7363.76
836.956	7274.78
840.331	7177.33
843.706	7095.46
847.08	6980.39
850.455	6894.08
853.83	6807.88
857.205	6705.75
860.58	6621.14
863.955	6546.65
867.329	6457.39
870.704	6362.19
874.079	6283.4
877.454	6192.83
880.829	6098.75
884.203	6032.11
887.578	5927.1
890.953	5833.27
894.328	5754.08
897.703	5665.67
901.077	5576.43
904.452	5518.62
907.827	5453.82
911.202	5356.99
914.577	5269.16
917.952	5205.03
921.326	5127.76
924.701	5045.85
928.076	4981.08
931.451	4908.66
934.826	4840.72
938.201	4763.19
941.575	4698.34
944.95	4626.01
948.325	4546.42
951.7	4506.08
955.075	4431.24
958.449	4361.53
961.824	4288.94
965.199	4222.1
968.574	4163.31
971.949	4122.29
975.323	4053.75
978.698	4002.89
982.073	3945.27
985.448	3897.81
988.823	3840.12
992.198	3783.59
995.572	3733.57
998.947	3672.87
1002.32	3632.95
1005.7	3594.3
1009.07	3549.69
1012.45	3492.58
1015.82	3440.74
1019.2	3380.2
1022.57	3330.27
1025.95	3291.8
1029.32	3251.86
1032.69	3221.35
1036.07	3171.53
1039.44	3118.08
1042.82	3086.62
1046.19	3025.53
1049.57	3005.68
1052.94	2950.29
1056.32	2913.86
1059.69	2875.23
1063.07	2839.66
1066.44	2802.03
1069.82	2769.63
1073.19	2721.15
1076.57	2694.75
1079.94	2651.66
1083.32	2616.19
1086.69	2580.82
1090.07	2563.55
1093.44	2525.3
1096.82	2468.12
1100.19	2442.23
1103.57	2412.97
1106.94	2385.63
1110.32	2365.83
1113.69	2303.42
1117.07	2279.11
1120.44	2256.24
1123.82	2224.16
1127.19	2205.7
1130.57	2179.84
1133.94	2152.73
1137.32	2122.85
1140.69	2102.25
1144.06	2067.71
1147.44	2053.49
1150.81	2018.81
1154.19	1998.13
1157.56	1966.02
1160.94	1942.43
1164.31	1921.56
1167.69	1896.8
1171.06	1870.41
1174.44	1855.19
1177.81	1821.25
1181.19	1812.76
1184.56	1778.01
1187.94	1753.84
1191.31	1728.25
1194.69	1705.18
1198.06	1693.09
1201.44	1666.86
1204.81	1643.45
1208.19	1614.3
1211.56	1598.54
1214.94	1571.65
1218.31	1560.65
1221.68	1534.83
1225.06	1523.95
1228.43	1494.71
1231.81	1479.41
1235.18	1452.51
1238.56	1431.46
1241.93	1403.82
1245.31	1401.91
1248.68	1378.42
1252.06	1366.25
1255.43	1350.62
1258.81	1327.18
1262.18	1314.34
1265.56	1299.27
1268.93	1286.69
1272.31	1256.02
1275.68	1250.07
1279.06	1237.54
1282.43	1230.55
1285.81	1209.75
