Measurement: Raman, 532 nm, unoriented, Raman Data Processed
Mineral: Corundum
Rruff sample: R110116
Ideal chemistry: Al_2_O_3_
Locality: Synthetic
Source: Gemological Institute of America
Description: A cut, red (2.76ct) ruby gemstone, grown by flame fusion.
Raman shift (cm-1)	intensity
177.273	239776
180.166	228350
183.059	217851
185.951	209890
188.844	203751
191.737	198697
194.629	194151
197.522	190562
200.415	187261
203.308	184370
206.2	182366
209.093	180244
211.986	177921
214.878	175635
217.771	173872
220.664	172326
223.556	170946
226.449	169573
229.342	168573
232.234	167701
235.127	166908
238.02	165589
240.913	164238
243.805	163210
246.698	162854
249.591	162290
252.483	161309
255.376	160595
258.269	160280
261.161	159637
264.054	158825
266.947	158174
269.84	157664
272.732	157449
275.625	157239
278.518	156818
281.41	156252
284.303	155127
287.196	154498
290.089	154106
292.981	153950
295.874	153698
298.767	153691
301.659	153492
304.552	152859
307.445	152567
310.337	152014
313.23	151384
316.123	150969
319.015	150292
321.908	149935
324.801	149390
327.694	148781
330.586	148356
333.479	148595
336.372	148821
339.264	148453
342.157	148010
345.05	147449
347.942	147356
350.835	146945
353.728	146866
356.621	146980
359.513	146825
362.406	146320
365.299	145992
368.191	146010
371.084	145788
373.977	145624
376.87	145215
379.762	144785
382.655	144484
385.548	144420
388.44	144212
391.333	143862
394.226	143787
397.118	143932
400.011	144001
402.904	143952
405.796	143812
408.689	143803
411.582	144162
414.475	144144
417.367	143928
420.26	143232
423.153	142894
426.045	142622
428.938	142928
431.831	142865
434.724	142599
437.616	142393
440.509	142039
443.402	142071
446.294	141785
449.187	141600
452.08	141619
454.972	141551
457.865	141770
460.758	142024
463.651	141992
466.543	141746
469.436	141556
472.329	141715
475.221	141496
478.114	141278
481.007	140827
483.899	140280
486.792	139756
489.685	139758
492.577	139892
495.47	140129
498.363	140334
501.256	140248
504.148	140020
507.041	139867
509.934	139836
512.826	139833
515.719	139542
518.612	139105
521.505	138936
524.397	139306
527.29	139586
530.183	139485
533.075	139425
535.968	139248
538.861	139392
541.753	139725
544.646	139687
547.539	139751
550.432	139895
553.324	139802
556.217	139462
559.11	139373
562.002	139371
564.895	139416
567.788	139509
570.68	139557
573.573	139385
576.466	139628
579.359	139931
582.251	139941
585.144	139574
588.037	139474
590.929	139407
593.822	139091
596.715	138722
599.607	138844
602.5	138630
605.393	138760
608.285	139100
611.178	139515
614.071	139595
616.964	139810
619.856	140224
622.749	140419
625.642	140030
628.534	139838
631.427	139847
634.32	140226
637.212	140241
640.105	140561
642.998	140491
645.891	140548
648.783	140798
651.676	141372
654.569	141811
657.461	142014
660.354	142306
663.247	142390
666.139	142242
669.032	142531
671.925	142939
674.818	143240
677.71	143346
680.603	143634
683.496	143922
686.388	144144
689.281	144442
692.174	144645
695.067	144799
697.959	144659
700.852	144264
703.745	144162
706.637	144584
709.53	144915
712.423	145088
715.315	144842
718.208	144672
721.101	145026
723.994	145736
726.886	146510
729.779	147247
732.672	147210
735.564	146840
738.457	146400
741.35	146300
744.242	146490
747.135	146529
750.028	147187
752.92	147920
755.813	148361
758.706	148368
761.599	148347
764.491	148461
767.384	148556
770.277	149062
773.169	148920
776.062	148593
778.955	148675
781.847	148654
784.74	148870
787.633	148989
790.526	149584
793.418	150433
796.311	150238
799.204	150075
802.096	150420
804.989	150717
807.882	151056
810.774	151152
813.667	151372
816.56	151953
819.453	152450
822.345	152562
825.238	152250
828.131	152538
831.023	152852
833.916	153169
836.809	153483
839.702	153808
842.594	154397
845.487	154560
848.38	155014
851.272	155292
854.165	155671
857.058	156249
859.95	156865
862.843	157100
865.736	156993
868.629	156932
871.521	157607
874.414	158264
877.307	158348
880.199	158000
883.092	158130
885.985	158393
888.877	158617
891.77	158913
894.663	158904
897.556	159272
900.448	159514
903.341	160126
906.234	160691
909.126	161253
912.019	161551
914.912	162104
917.804	162676
920.697	163077
923.59	163472
926.482	164223
929.375	163363
932.268	163514
935.161	164272
938.053	164306
940.946	164794
943.839	165364
946.731	165576
949.624	165570
952.517	165786
955.409	165881
958.302	166116
961.195	166577
964.088	167278
966.98	167958
969.873	168390
972.766	168504
975.658	168961
978.551	169553
981.444	170383
984.337	170716
987.229	171251
990.122	171791
993.015	172615
995.907	172867
998.8	173164
1001.69	173531
1004.59	173959
1007.48	174500
1010.37	175118
1013.26	175183
1016.16	175985
1019.05	177210
1021.94	178411
1024.83	178791
1027.73	179320
1030.62	179904
1033.51	180548
1036.4	181344
1039.3	181626
1042.19	181882
1045.08	182439
1047.98	183284
1050.87	184062
1053.76	184717
1056.65	185994
1059.55	187123
1062.44	187598
1065.33	187997
1068.22	188287
1071.12	188632
1074.01	188416
1076.9	188879
1079.8	189175
1082.69	189743
1085.58	190576
1088.47	191102
1091.37	191741
1094.26	192451
1097.15	193331
1100.04	193946
1102.94	193954
1105.83	194556
1108.72	195064
1111.62	196051
1114.51	196426
1117.4	196401
1120.29	197030
1123.19	197826
1126.08	197755
1128.97	197928
1131.86	198169
1134.76	198892
1137.65	200252
1140.54	200592
1143.43	201240
1146.33	201750
1149.22	202766
1152.11	203441
1155.01	204224
1157.9	204821
1160.79	205719
1163.68	206837
1166.58	207418
1169.47	208129
1172.36	209538
1175.26	210649
1178.15	211064
1181.04	211795
1183.93	212529
1186.83	213640
1189.72	214667
1192.61	215994
1195.5	216889
1198.4	218392
1201.29	219160
1204.18	220291
1207.07	222319
1209.97	223798
1212.86	224489
1215.75	224639
1218.64	224992
1221.54	226041
1224.43	227615
1227.32	229011
1230.22	230094
1233.11	231391
1236	232072
1238.89	233468
1241.79	235857
1244.68	237760
1247.57	238980
1250.46	240147
1253.36	241664
1256.25	243660
1259.14	245670
1262.04	247182
1264.93	248710
1267.82	250553
1270.71	252884
1273.61	255004
1276.5	257224
1279.39	258977
1282.29	260344
1285.18	261708
1288.07	263983
1290.96	265458
1293.86	267415
1296.75	269233
1299.64	271496
1302.53	272558
