Measurement: Raman, 532 nm, unoriented, Raman Data RAW
Mineral: Corundum
Rruff sample: R110097
Ideal chemistry: Al_2_O_3_
Locality: Synthetic
Source: Gemological Institute of America
Description: A polished pink (.92ct) ruby cabochon, flux grown, Kashan produced.
Raman shift (cm-1)	intensity
177.273	3430.38
180.166	3272.88
183.059	3135.28
185.951	3031.75
188.844	2947.99
191.737	2886.28
194.629	2828.99
197.522	2788.12
200.415	2743.45
203.308	2710.66
206.2	2683.94
209.093	2660.14
211.986	2632.9
214.878	2605.99
217.771	2572.96
220.664	2554.96
223.556	2531.65
226.449	2509.33
229.342	2496.19
232.234	2482.72
235.127	2469.26
238.02	2461.16
240.913	2442.89
243.805	2436.01
246.698	2429.98
249.591	2434.2
252.483	2409.39
255.376	2409.83
258.269	2404.64
261.161	2400.16
264.054	2389.55
266.947	2383.76
269.84	2388.69
272.732	2381.75
275.625	2375.11
278.518	2372.82
281.41	2368.61
284.303	2353.59
287.196	2350.9
290.089	2339.46
292.981	2335.39
295.874	2344.15
298.767	2349.16
301.659	2344.34
304.552	2343.44
307.445	2344
310.337	2332.85
313.23	2312.44
316.123	2302.5
319.015	2293.21
321.908	2281.82
324.801	2269.83
327.694	2273.92
330.586	2268.79
333.479	2273.48
336.372	2288.61
339.264	2280.83
342.157	2278.71
345.05	2270.7
347.942	2267.26
350.835	2261.14
353.728	2249.18
356.621	2256.19
359.513	2255.55
362.406	2262.89
365.299	2260.54
368.191	2271.59
371.084	2276.31
373.977	2288.42
376.87	2292.34
379.762	2298.44
382.655	2258.21
385.548	2242.36
388.44	2236.95
391.333	2233.47
394.226	2226.87
397.118	2229.2
400.011	2242.85
402.904	2250.15
405.796	2257.12
408.689	2261.25
411.582	2282.07
414.475	2320.15
417.367	2353.38
420.26	2275.02
423.153	2249.57
426.045	2252.9
428.938	2259.86
431.831	2257.01
434.724	2243.31
437.616	2228.15
440.509	2237.62
443.402	2234.89
446.294	2230.13
449.187	2223.84
452.08	2217.59
454.972	2222.05
457.865	2223.09
460.758	2221.4
463.651	2234.66
466.543	2225.65
469.436	2230.95
472.329	2238.06
475.221	2237.81
478.114	2241.65
481.007	2229.57
483.899	2218.82
486.792	2214.3
489.685	2215.54
492.577	2223.24
495.47	2224.88
498.363	2227.2
501.256	2227.76
504.148	2227.31
507.041	2226.99
509.934	2227.89
512.826	2228.85
515.719	2225.83
518.612	2225.68
521.505	2219.87
524.397	2232.64
527.29	2241.97
530.183	2240.32
533.075	2243.49
535.968	2247.32
538.861	2245.49
541.753	2249.08
544.646	2252.76
547.539	2254.8
550.432	2249.88
553.324	2245.88
556.217	2246.73
559.11	2240.19
562.002	2248.59
564.895	2247.14
567.788	2253.53
570.68	2259.35
573.573	2257.74
576.466	2283.36
579.359	2275.79
582.251	2274.62
585.144	2264.64
588.037	2270.46
590.929	2268.9
593.822	2263.93
596.715	2263.23
599.607	2255.99
602.5	2259.28
605.393	2260.81
608.285	2266.63
611.178	2268.18
614.071	2278.55
616.964	2282.34
619.856	2294.19
622.749	2302.8
625.642	2298.26
628.534	2297.32
631.427	2302.48
634.32	2316.32
637.212	2319.59
640.105	2322.55
642.998	2329.18
645.891	2328.37
648.783	2325.7
651.676	2333.57
654.569	2347.51
657.461	2341.2
660.354	2356.55
663.247	2344.38
666.139	2349.75
669.032	2363.64
671.925	2378.62
674.818	2383.3
677.71	2389.61
680.603	2386.93
683.496	2398.7
686.388	2403.87
689.281	2408.98
692.174	2418.89
695.067	2423.7
697.959	2420.63
700.852	2416.16
703.745	2422.22
706.637	2433.13
709.53	2446.79
712.423	2454.09
715.315	2442.47
718.208	2445.04
721.101	2451.56
723.994	2464.1
726.886	2476.56
729.779	2493.77
732.672	2492.61
735.564	2495.76
738.457	2497.42
741.35	2501.24
744.242	2508.03
747.135	2515.66
750.028	2543.67
752.92	2547.43
755.813	2545.41
758.706	2549.91
761.599	2549.92
764.491	2553.86
767.384	2558.49
770.277	2562.18
773.169	2563.7
776.062	2555.05
778.955	2562.12
781.847	2573.45
784.74	2574.9
787.633	2579.78
790.526	2596.41
793.418	2611.91
796.311	2616.18
799.204	2613.64
802.096	2622.49
804.989	2630.24
807.882	2637.15
810.774	2637.1
813.667	2650.95
816.56	2660.93
819.453	2670.78
822.345	2674.76
825.238	2674.61
828.131	2679.76
831.023	2689.77
833.916	2696.55
836.809	2695.47
839.702	2706.78
842.594	2719.72
845.487	2733.04
848.38	2733.04
851.272	2743.77
854.165	2766.49
857.058	2777.99
859.95	2785.86
862.843	2800.23
865.736	2802.14
868.629	2796.59
871.521	2812.53
874.414	2826.94
877.307	2841.08
880.199	2841.27
883.092	2850.02
885.985	2856.68
888.877	2875.11
891.77	2874.56
894.663	2890.68
897.556	2893.53
900.448	2911.29
903.341	2928.87
906.234	2937.69
909.126	2964.44
912.019	2966.88
914.912	2984.28
917.804	2993.51
920.697	3006.96
923.59	3014.5
926.482	3022.82
929.375	3006.92
932.268	3022.46
935.161	3040.06
938.053	3043.67
940.946	3056.94
943.839	3070.92
946.731	3088.53
949.624	3100.62
952.517	3112.05
955.409	3113.23
958.302	3124.2
961.195	3129.22
964.088	3155.78
966.98	3170.39
969.873	3186.53
972.766	3191.11
975.658	3203.15
978.551	3222.72
981.444	3240.84
984.337	3253.3
987.229	3264.69
990.122	3285.91
993.015	3313.98
995.907	3320.43
998.8	3336.93
1001.69	3350.63
1004.59	3375.87
1007.48	3399.16
1010.37	3410.97
1013.26	3424.84
1016.16	3436.45
1019.05	3468.45
1021.94	3497.52
1024.83	3504.38
1027.73	3527.1
1030.62	3547.7
1033.51	3566.84
1036.4	3593.16
1039.3	3605.18
1042.19	3626.07
1045.08	3641.8
1047.98	3667.86
1050.87	3684.27
1053.76	3706.4
1056.65	3736.93
1059.55	3761.6
1062.44	3771.86
1065.33	3795.38
1068.22	3807.95
1071.12	3824.82
1074.01	3837.43
1076.9	3863.22
1079.8	3885.57
1082.69	3900.13
1085.58	3927.85
1088.47	3944.87
1091.37	3964.84
1094.26	3998.56
1097.15	4020.03
1100.04	4049.8
1102.94	4051.31
1105.83	4076.03
1108.72	4099.76
1111.62	4124.87
1114.51	4144.8
1117.4	4161.59
1120.29	4184.61
1123.19	4208.93
1126.08	4223.58
1128.97	4242.63
1131.86	4255.81
1134.76	4292.84
1137.65	4325.6
1140.54	4348.59
1143.43	4366.77
1146.33	4394.12
1149.22	4422.35
1152.11	4452.95
1155.01	4478.05
1157.9	4499.29
1160.79	4530.79
1163.68	4555.24
1166.58	4588.17
1169.47	4607.48
1172.36	4633.27
1175.26	4674.56
1178.15	4695.73
1181.04	4726.48
1183.93	4744.21
1186.83	4792.54
1189.72	4824.86
1192.61	4871.15
1195.5	4892.49
1198.4	4939.63
1201.29	4961.62
1204.18	4995.29
1207.07	5049.98
1209.97	5089.75
1212.86	5109.01
1215.75	5134.57
1218.64	5145.1
1221.54	5176.7
1224.43	5227.59
1227.32	5267.64
1230.22	5303.06
1233.11	5336.09
1236	5361.92
1238.89	5408.21
1241.79	5467.85
1244.68	5522.43
1247.57	5553.88
1250.46	5593.15
1253.36	5635.71
1256.25	5694.35
1259.14	5751.72
1262.04	5789.63
1264.93	5824.89
1267.82	5865.59
1270.71	5922.35
1273.61	5986.59
1276.5	6034.33
1279.39	6076.81
1282.29	6130.96
1285.18	6174.63
1288.07	6231.51
1290.96	6280.97
1293.86	6337.7
1296.75	6368.81
1299.64	6428.04
1302.53	6458.98
