Measurement: Raman, 532 nm, unoriented, Raman Data RAW
Mineral: Corundum
Rruff sample: R110096
Ideal chemistry: Al_2_O_3_
Locality: Synthetic
Source: Gemological Institute of America
Description: A red, cut (.49ct) ruby gemstone and rough (.68ct) fragment, flux grown, Ramaura produced.
Raman shift (cm-1)	intensity
177.273	51335
180.166	48854.9
183.059	46678.3
185.951	45019.8
188.844	43724.2
191.737	42727.6
194.629	41830.8
197.522	41199
200.415	40453.4
203.308	39939.9
206.2	39546.4
209.093	39071.6
211.986	38563.9
214.878	38042.2
217.771	37476.7
220.664	37036.4
223.556	36679.7
226.449	36239.3
229.342	35955.5
232.234	35731
235.127	35557.8
238.02	35298.5
240.913	35048.5
243.805	34969.3
246.698	35017.3
249.591	35062.6
252.483	34841.9
255.376	34600.4
258.269	34521
261.161	34450.9
264.054	34300.5
266.947	34216.8
269.84	34130.8
272.732	34114.1
275.625	34091.4
278.518	33982.6
281.41	33852
284.303	33667.3
287.196	33543.4
290.089	33477.1
292.981	33474.4
295.874	33376.7
298.767	33481.2
301.659	33549.3
304.552	33601.6
307.445	33528.9
310.337	33363.5
313.23	33184.9
316.123	32967.3
319.015	32703.5
321.908	32593.3
324.801	32447.7
327.694	32435.4
330.586	32363.5
333.479	32439.3
336.372	32627
339.264	32597
342.157	32574.5
345.05	32440.6
347.942	32391.9
350.835	32231.3
353.728	32134.3
356.621	32104.5
359.513	32040
362.406	32017.9
365.299	32023.6
368.191	32114.3
371.084	32092.6
373.977	32038.1
376.87	31950.9
379.762	31901.9
382.655	31876.6
385.548	31869.3
388.44	31726.4
391.333	31658.3
394.226	31649.6
397.118	31657.6
400.011	31698
402.904	31744
405.796	31773
408.689	31666.4
411.582	31752.9
414.475	31818.1
417.367	31867.6
420.26	31775
423.153	31761.5
426.045	31781.4
428.938	31809.4
431.831	31907.9
434.724	31865.9
437.616	31814
440.509	31770.6
443.402	31673.2
446.294	31483
449.187	31397.4
452.08	31325.5
454.972	31372.1
457.865	31570.4
460.758	31710.3
463.651	31713.4
466.543	31769.9
469.436	31859.3
472.329	31954.1
475.221	32003.3
478.114	31863.7
481.007	31770.6
483.899	31460.1
486.792	31348.4
489.685	31248.5
492.577	31321.1
495.47	31418
498.363	31497.5
501.256	31527.3
504.148	31390
507.041	31364.8
509.934	31400
512.826	31382.6
515.719	31351.2
518.612	31288.2
521.505	31312.5
524.397	31404.7
527.29	31538
530.183	31640.4
533.075	31639.1
535.968	31640
538.861	31707
541.753	31778.5
544.646	31717.6
547.539	31680.5
550.432	31677.2
553.324	31583.7
556.217	31531.7
559.11	31477.7
562.002	31527.4
564.895	31612.2
567.788	31705.8
570.68	31783.4
573.573	31812.5
576.466	31989
579.359	32078.7
582.251	32194.4
585.144	32044.8
588.037	32116
590.929	31874.4
593.822	31824.9
596.715	31693.1
599.607	31671.5
602.5	31675
605.393	31672.9
608.285	31725.7
611.178	31865.4
614.071	32038
616.964	32211.9
619.856	32397.1
622.749	32545.5
625.642	32499.7
628.534	32472.9
631.427	32525.4
634.32	32570.5
637.212	32717.5
640.105	32541.3
642.998	32515
645.891	32481.2
648.783	32550.6
651.676	32756.3
654.569	32918
657.461	33000.4
660.354	33143.6
663.247	33208
666.139	33251.6
669.032	33478.9
671.925	33629.9
674.818	33739
677.71	33748.2
680.603	33802.7
683.496	33868
686.388	33898.3
689.281	34043.3
692.174	34156
695.067	34195.5
697.959	34124.6
700.852	34070.8
703.745	34107.5
706.637	34310.6
709.53	34540.1
712.423	34519.3
715.315	34484.7
718.208	34375.9
721.101	34451.6
723.994	34663.7
726.886	34905.3
729.779	35078.7
732.672	35039.3
735.564	34990.4
738.457	34829.6
741.35	34776
744.242	34836.9
747.135	34993.6
750.028	35208.8
752.92	35415.6
755.813	35531.1
758.706	35516.7
761.599	35409.8
764.491	35433.8
767.384	35522.2
770.277	35545.5
773.169	35505.9
776.062	35471.6
778.955	35445.9
781.847	35539.5
784.74	35673.1
787.633	35924.7
790.526	36204.8
793.418	36473.6
796.311	36387.9
799.204	36351.8
802.096	36349.6
804.989	36393.4
807.882	36494
810.774	36495.4
813.667	36605.7
816.56	36783.6
819.453	36916.5
822.345	36940.9
825.238	36964.1
828.131	37062.4
831.023	37252.9
833.916	37291
836.809	37318.5
839.702	37523.5
842.594	37711.3
845.487	37781.1
848.38	37877.7
851.272	38028.1
854.165	38220.1
857.058	38466.7
859.95	38690.4
862.843	38751.8
865.736	38752.1
868.629	38722.7
871.521	38937.4
874.414	39210.1
877.307	39371.2
880.199	39303.5
883.092	39384.5
885.985	39572.8
888.877	39650.2
891.77	39786.9
894.663	39909.5
897.556	40097.3
900.448	40298.1
903.341	40482.6
906.234	40758.1
909.126	40928.9
912.019	41095.6
914.912	41311.8
917.804	41416
920.697	41522.2
923.59	41568.5
926.482	41599.6
929.375	41148.3
932.268	41373.1
935.161	41782
938.053	41863.5
940.946	42055.6
943.839	42231.4
946.731	42386.2
949.624	42320.6
952.517	42357.5
955.409	42332.9
958.302	42414.4
961.195	42584.6
964.088	42729.2
966.98	42945.9
969.873	43035.8
972.766	43062
975.658	43177.7
978.551	43375
981.444	43560.2
984.337	43743.3
987.229	43915.6
990.122	44208.8
993.015	44519.6
995.907	44615.1
998.8	44853.3
1001.69	45114
1004.59	45329.7
1007.48	45568.2
1010.37	45733.6
1013.26	45853.2
1016.16	46106
1019.05	46432.9
1021.94	46823.3
1024.83	46977.7
1027.73	47214
1030.62	47419.3
1033.51	47762.9
1036.4	48117.7
1039.3	48362.8
1042.19	48581.5
1045.08	48910
1047.98	49154.5
1050.87	49371
1053.76	49565.1
1056.65	50037
1059.55	50354.9
1062.44	50553.6
1065.33	50721
1068.22	50823.4
1071.12	51027.6
1074.01	51236.4
1076.9	51485.1
1079.8	51733.3
1082.69	51902.2
1085.58	52181.4
1088.47	52465.4
1091.37	52713.9
1094.26	52995.6
1097.15	53287.5
1100.04	53585.1
1102.94	53707
1105.83	53991
1108.72	54250.8
1111.62	54706.1
1114.51	54925.7
1117.4	55035.1
1120.29	55339.9
1123.19	55631.8
1126.08	55815.7
1128.97	56081
1131.86	56176.6
1134.76	56561.6
1137.65	56926.1
1140.54	57208.8
1143.43	57465.1
1146.33	57728.9
1149.22	58308.8
1152.11	58660.2
1155.01	59047.6
1157.9	59330.7
1160.79	59676.6
1163.68	60106.2
1166.58	60499.4
1169.47	60802.1
1172.36	61300.9
1175.26	61743
1178.15	62062.1
1181.04	62247.9
1183.93	62613.2
1186.83	63186.6
1189.72	63742.6
1192.61	64438.5
1195.5	64883.1
1198.4	65393.1
1201.29	65616.6
1204.18	65977.1
1207.07	66667.8
1209.97	67321.4
1212.86	67684.9
1215.75	67736
1218.64	67820.6
1221.54	68123.7
1224.43	68802.1
1227.32	69385.1
1230.22	69880.6
1233.11	70371.5
1236	70698.2
1238.89	71199.7
1241.79	71968.5
1244.68	72664.1
1247.57	73239.4
1250.46	73696.4
1253.36	74298.7
1256.25	74911.3
1259.14	75485.1
1262.04	75914.2
1264.93	76400.3
1267.82	76898.4
1270.71	77681.7
1273.61	78588.6
1276.5	79392.4
1279.39	80018.4
1282.29	80477.2
1285.18	81160
1288.07	81890.4
1290.96	82483.8
1293.86	82964.1
1296.75	83660.1
1299.64	84316.8
1302.53	84725.9
