Measurement: Raman, 532 nm, unoriented, Raman Data Processed
Mineral: Corundum
Rruff sample: R110111
Ideal chemistry: Al_2_O_3_
Locality: Synthetic
Source: Gemological Institute of America
Description: A cut, red (1.07ct) ruby gemstone, flux grown.
Raman shift (cm-1)	intensity
176.791	0
179.684	35.7022
182.577	13.313
185.469	11.5039
188.362	20.7798
191.255	7.64404
194.147	1.80615
197.04	9.33203
199.933	34.6885
202.825	53.7495
205.718	109.551
208.611	104.934
211.504	98.2671
214.396	66.9004
217.289	58.4351
220.182	29.3882
223.074	28.8867
225.967	0.75293
228.86	11.6001
231.752	16.5107
234.645	4.05615
237.538	48.9248
240.43	43.4717
243.323	64.0122
246.216	107.902
249.109	139.375
252.001	168.141
254.894	139.019
257.787	174.859
260.679	173.895
263.572	166.939
266.465	165.447
269.358	173.743
272.25	192.551
275.143	185.307
278.036	183.324
280.928	172.442
283.821	155.285
286.714	120.749
289.606	106.101
292.499	110.029
295.392	120.178
298.284	146.681
301.177	159.591
304.07	162.243
306.963	172.367
309.855	138.188
312.748	122.065
315.641	98.2832
318.533	63.9678
321.426	52.7095
324.319	35.46
327.212	31.8203
330.104	22.1289
332.997	27.7358
335.89	42.915
338.782	56.0308
341.675	41.0366
344.568	32.102
347.46	27.9512
350.353	18.8467
353.246	18.4595
356.139	22.6367
359.031	18.5708
361.924	25.7686
364.817	18.543
367.709	26.605
370.602	28.8262
373.495	43.5903
376.387	38.0889
379.28	35.7305
382.173	15.1807
385.065	9.9541
387.958	2.82178
390.851	14.6572
393.744	5.51465
396.636	5.76514
399.529	15.6396
402.422	34.7876
405.314	71.3223
408.207	102.643
411.1	174.139
413.993	337.222
416.885	566.88
419.778	275.245
422.671	69.2373
425.563	27.5483
428.456	49.0855
431.349	42.4775
434.241	42.231
437.134	44.9458
440.027	50.7637
442.92	32.2212
445.812	7.36963
448.705	3.67773
451.598	0.950195
454.49	3.4331
457.383	29.1133
460.276	44.979
463.168	33.3071
466.061	40.0098
468.954	40.4014
471.846	60.7554
474.739	63.9438
477.632	52.8184
480.525	52.1504
483.417	17.3852
486.31	1.89795
489.203	5.15576
492.095	6.17188
494.988	15.4692
497.881	37.3989
500.774	39.7178
503.666	26.5371
506.559	34.7046
509.452	28.7686
512.344	40.9424
515.237	14.5864
518.13	11.144
521.022	5.69434
523.915	24.7661
526.808	45.7895
529.701	48.8306
532.593	58.1108
535.486	52.2353
538.379	68.292
541.271	78.3931
544.164	86.5166
547.057	86.8023
549.949	78.0713
552.842	70.8208
555.735	66.3901
558.628	44.1792
561.52	34.2817
564.413	54.96
567.306	68.2437
570.198	59.9629
573.091	65.7227
575.984	83.6733
578.876	81.6128
581.769	106.393
584.662	79.7939
587.554	75.437
590.447	54.6172
593.34	33.8057
596.232	5.07275
599.125	9.68262
602.018	6.29688
604.911	9.49902
607.803	5.23731
610.696	26.4399
613.589	37.0762
616.481	39.5244
619.374	48.6465
622.267	59.7925
625.159	48.8506
628.052	39.501
630.945	42.8369
633.838	68.082
636.73	104.425
639.623	129.33
642.516	173.334
645.408	161.085
648.301	94.9228
651.194	71.0454
654.087	53.8218
656.979	42.4873
659.872	44.5684
662.765	30.7349
665.657	22.3984
668.55	25.709
671.443	18.0503
674.335	34.5806
677.228	30.6201
680.121	44.6138
683.014	40.3716
685.906	49.0278
688.799	54.0503
691.692	65.2446
694.584	61.5908
697.477	42.1006
700.37	34.3901
703.263	29.0713
706.155	20.9985
709.048	41.9419
711.941	37.7153
714.833	16.9668
717.726	2.36084
720.619	1.71387
723.511	17.3564
726.404	57.8726
729.297	80.5312
732.189	75.1431
735.082	56.0772
737.975	24.3862
740.868	4.44043
743.76	13.98
746.653	7.13477
749.546	35.8481
752.438	82.9282
755.331	70.1523
758.224	74.1387
761.116	54.1977
764.009	26.1489
766.902	31.7456
769.795	46.4448
772.687	27.9668
775.58	9.18799
778.473	10.7134
781.365	9.58984
784.258	0.681152
787.151	4.35596
790.043	26.398
792.936	56.8496
795.829	37.1709
798.722	28.4365
801.614	22.8745
804.507	22.1577
807.4	32.3257
810.292	25.5166
813.185	20.8052
816.078	35.8852
818.971	42.3843
821.863	50.7422
824.756	19.7988
827.649	16.0044
830.541	15.1724
833.434	10.3218
836.327	0.373535
839.219	9.69824
842.112	12.8911
845.005	17.1724
847.898	13.7017
850.79	12.6377
853.683	28.123
856.576	33.5957
859.468	54.0718
862.361	44.0576
865.254	23.4395
868.146	1.6958
871.039	15.6338
873.932	37.6509
876.824	46.7881
879.717	25.4858
882.61	16.5972
885.503	51.0337
888.395	49.1435
891.288	33.7554
894.181	45.9224
897.073	47.3926
899.966	50.9985
902.859	49.7666
905.751	80.4785
908.644	89.0786
911.537	83.3496
914.43	101.641
917.322	106.556
920.215	99.9302
923.108	103.339
926	135.913
928.893	27.0356
931.786	5.05127
934.678	73.4468
937.571	46.0078
940.464	45.061
943.357	50.8887
946.249	48.6167
949.142	20.7715
952.035	18.3931
954.927	0.904297
957.82	4.26514
960.713	6.2793
963.606	15.2461
966.498	40.4756
969.391	30.3896
972.284	16.8276
975.176	10.6045
978.069	3.81836
980.962	22.7529
983.854	29.5073
986.747	14.0488
989.64	22.999
992.533	29.2773
995.425	19.1294
998.318	21.5742
1001.21	27.416
1004.1	14.6157
1007	39.959
1009.89	17.0244
1012.78	1.09424
1015.67	11.2398
1018.57	1.24365
1021.46	42.5977
1024.35	33.5659
1027.24	30.6641
1030.14	36.6465
1033.03	33.2461
1035.92	60.2617
1038.82	45.6328
1041.71	46.3711
1044.6	36.2402
1047.49	32.1094
1050.39	53.084
1053.28	22.5098
1056.17	67.876
1059.07	102.353
1061.96	113.201
1064.85	94.9551
1067.74	75.6787
1070.63	77.2998
1073.53	41.5078
1076.42	40.9023
1079.31	41.1728
1082.21	33.0625
1085.1	40.1201
1087.99	16.499
1090.88	50.0293
1093.78	47.5137
1096.67	62.041
1099.56	62.8652
1102.45	52.4893
1105.35	52.2598
1108.24	49.0674
1111.13	73.8184
1114.03	73.9658
1116.92	50.7158
1119.81	48.0107
1122.7	54.5
1125.6	23.5996
1128.49	26.6826
1131.38	0.552734
1134.28	4.46191
1137.17	27.416
1140.06	20.834
1142.95	10.3604
1145.85	7.29688
1148.74	8.47656
1151.63	1.70703
1154.52	19.7363
1157.42	12.2227
1160.31	26.9189
1163.2	35.0478
1166.09	42.9629
1168.99	20.0576
1171.88	61.4102
1174.77	78.6328
1177.66	85.8438
1180.56	81.668
1183.45	77.166
1186.34	93.8818
1189.24	107.103
1192.13	129.882
1195.02	140.084
1197.91	169.098
1200.81	147.179
1203.7	131.571
1206.59	195.358
1209.48	218.749
1212.38	217.799
1215.27	165.838
1218.16	80.958
1221.06	53.8057
1223.95	51.8223
1226.84	76.8955
1229.73	46.3652
1232.63	25.8613
1235.52	11.3906
1238.41	16.4395
1241.31	5.79785
1244.2	37.3525
1247.09	38.4795
1249.98	24.9053
1252.88	13.8096
1255.77	39.6943
1258.66	76.0352
1261.55	49.1768
1264.45	82.9971
1267.34	97.8799
1270.23	93.79
1273.12	94.8799
1276.02	144.084
1278.91	124.519
1281.8	83.1582
1284.69	51.9121
1287.59	70.4902
1290.48	35.0498
1293.37	9.6543
1296.27	29.7158
1299.16	51.5039
1302.05	11.9668
