Measurement: Raman, 780 nm, unoriented, Raman Data Processed
Mineral: Corundum
Rruff sample: R110116
Ideal chemistry: Al_2_O_3_
Locality: Synthetic
Source: Gemological Institute of America
Description: A cut, red (2.76ct) ruby gemstone, grown by flame fusion.
Raman shift (cm-1)	intensity
99.3174	1.92885e+06
102.692	1.94083e+06
106.067	1.97013e+06
109.442	2.00094e+06
112.817	2.02817e+06
116.192	2.05367e+06
119.566	2.07682e+06
122.941	2.0993e+06
126.316	2.12202e+06
129.691	2.14357e+06
133.066	2.16529e+06
136.44	2.18839e+06
139.815	2.20911e+06
143.19	2.22665e+06
146.565	2.23965e+06
149.94	2.24274e+06
153.315	2.2469e+06
156.689	2.24143e+06
160.064	2.23574e+06
163.439	2.22318e+06
166.814	2.20909e+06
170.189	2.19739e+06
173.563	2.18614e+06
176.938	2.17462e+06
180.313	2.16307e+06
183.688	2.15177e+06
187.063	2.1405e+06
190.437	2.12985e+06
193.812	2.12365e+06
197.187	2.11209e+06
200.562	2.09357e+06
203.937	2.07669e+06
207.311	2.05945e+06
210.686	2.03787e+06
214.061	2.01564e+06
217.436	1.99121e+06
220.811	1.9671e+06
224.186	1.94033e+06
227.56	1.91364e+06
230.935	1.88823e+06
234.31	1.86206e+06
237.685	1.83543e+06
241.06	1.80962e+06
244.435	1.78395e+06
247.809	1.76032e+06
251.184	1.73242e+06
254.559	1.70422e+06
257.934	1.67946e+06
261.309	1.65554e+06
264.683	1.62912e+06
268.058	1.60213e+06
271.433	1.57608e+06
274.808	1.54788e+06
278.183	1.5239e+06
281.558	1.49721e+06
284.932	1.47204e+06
288.307	1.44568e+06
291.682	1.42399e+06
295.057	1.39857e+06
298.432	1.37551e+06
301.806	1.35267e+06
305.181	1.33128e+06
308.556	1.31151e+06
311.931	1.29192e+06
315.306	1.2754e+06
318.68	1.25582e+06
322.055	1.23864e+06
325.43	1.22123e+06
328.805	1.20703e+06
332.18	1.19164e+06
335.555	1.17603e+06
338.929	1.16365e+06
342.304	1.14901e+06
345.679	1.1357e+06
349.054	1.1239e+06
352.429	1.10971e+06
355.803	1.09702e+06
359.178	1.08419e+06
362.553	1.07258e+06
365.928	1.06098e+06
369.303	1.05322e+06
372.678	1.04111e+06
376.052	1.0297e+06
379.427	1.02006e+06
382.802	1.01088e+06
386.177	1.00217e+06
389.552	993994
392.926	985346
396.301	978211
399.676	969979
403.051	962657
406.426	956607
409.8	950471
413.175	944095
416.55	941054
419.925	933288
423.3	924509
426.675	917468
430.049	912448
433.424	905239
436.799	899980
440.174	892359
443.549	888362
446.923	881388
450.298	873886
453.673	866402
457.048	860123
460.423	852940
463.798	844833
467.172	837851
470.547	831041
473.922	823550
477.297	814881
480.672	806956
484.046	799726
487.421	792739
490.796	784586
494.171	777558
497.546	770026
500.921	762190
504.295	754543
507.67	746557
511.045	738125
514.42	730224
517.795	720609
521.169	711515
524.544	702288
527.919	694395
531.294	685418
534.669	676901
538.044	668900
541.418	659458
544.793	650475
548.168	641762
551.543	634132
554.918	625981
558.293	617397
561.667	609273
565.042	600755
568.417	593686
571.792	584114
575.167	576054
578.541	568171
581.916	559844
585.291	552195
588.666	544582
592.041	536558
595.415	529436
598.79	521731
602.165	514225
605.54	507042
608.915	499136
612.29	492432
615.664	484790
619.039	477421
622.414	470308
625.789	464528
629.164	458032
632.538	451423
635.913	444761
639.288	438819
642.663	432764
646.038	426324
649.413	420246
652.787	414639
656.162	407373
659.537	402320
662.912	395910
666.287	390210
669.661	385294
673.036	379690
676.411	375058
679.786	370158
683.161	364030
686.535	359492
689.91	354286
693.285	350057
696.66	345155
700.035	340573
703.41	336651
706.784	332671
710.159	328357
713.534	323799
716.909	320039
720.284	316264
723.659	312479
727.033	308085
730.408	304795
733.783	300959
737.158	298155
740.533	293187
743.907	290057
747.282	286764
750.657	283825
754.032	279949
757.407	275712
760.782	272946
764.156	268747
767.531	265580
770.906	262262
774.281	259470
777.656	256274
781.03	253574
784.405	250314
787.78	247112
791.155	244392
794.53	241730
797.904	238793
801.279	235546
804.654	232782
808.029	230349
811.404	227038
814.779	224066
818.153	221968
821.528	219344
824.903	216701
828.278	213863
831.653	210941
835.028	208412
838.402	206075
841.777	202795
845.152	200017
848.527	197458
851.902	194765
855.276	192033
858.651	189679
862.026	186856
865.401	184272
868.776	181434
872.15	179512
875.525	177330
878.9	174369
882.275	171735
885.65	169828
889.024	166782
892.399	165102
895.774	162454
899.149	159804
902.524	157858
905.899	155763
909.273	153234
912.648	151302
916.023	149085
919.398	147408
922.773	144684
926.148	142890
929.522	140748
932.897	138919
936.272	136946
939.647	134916
943.022	133405
946.396	131154
949.771	129353
953.146	127832
956.521	125905
959.896	124263
963.27	122392
966.645	120492
970.02	118672
973.395	116935
976.77	115332
980.145	113612
983.519	112037
986.894	110198
990.269	109205
993.644	107786
997.019	106156
1000.39	104870
1003.77	103272
1007.14	101988
1010.52	100286
1013.89	99236.9
1017.27	97750.9
1020.64	96153.5
1024.02	94952.3
1027.39	93696.3
1030.77	92338.8
1034.14	91422.4
1037.52	90185.5
1040.89	88560.2
1044.27	87297.7
1047.64	85982.8
1051.02	85014.3
1054.39	83875.5
1057.77	82743.8
1061.14	81684.3
1064.52	80495.4
1067.89	79321.6
1071.27	78311.7
1074.64	77470.2
1078.01	76105
1081.39	75183.5
1084.76	74181.6
1088.14	73061.1
1091.51	72097.7
1094.89	70881.5
1098.26	70014.9
1101.64	68923.2
1105.01	68092.2
1108.39	67309.9
1111.76	66215.3
1115.14	65432.9
1118.51	64429.5
1121.89	63736.7
1125.26	62719.1
1128.64	62089
1132.01	61429.1
1135.39	60577.5
1138.76	59791.3
1142.14	58840.3
1145.51	58095.6
1148.88	57336.6
1152.26	56612.1
1155.63	55643.1
1159.01	54896.7
1162.38	54404.6
1165.76	53657.5
1169.13	53023.5
1172.51	52213.3
1175.88	51550.5
1179.26	50860.1
1182.63	50279.2
1186.01	49778.6
1189.38	48939.9
1192.76	48361.9
1196.13	47671
1199.51	47090.1
1202.88	46146.7
1206.26	45811.4
1209.63	45081.4
1213.01	44260.7
1216.38	43813.7
1219.76	43164.8
1223.13	42537.3
1226.51	41970.5
1229.88	41460.5
1233.26	41017.7
1236.63	40404.2
1240.01	39838.7
1243.38	39218
1246.76	38696.8
1250.13	37994.9
1253.51	37433.5
1256.88	37270.9
1260.25	36719.1
1263.63	36184.3
1267	35698
1270.38	35149.8
1273.75	35055.7
1277.13	34523.4
1280.5	33976.9
1283.88	33499.9
