Measurement: Raman, 780 nm, unoriented, Raman Data RAW
Mineral: Corundum
Rruff sample: R110097
Ideal chemistry: Al_2_O_3_
Locality: Synthetic
Source: Gemological Institute of America
Description: A polished pink (.92ct) ruby cabochon, flux grown, Kashan produced.
Raman shift (cm-1)	intensity
113.299	557.905
116.674	559.904
120.048	553.717
123.423	553.617
126.798	562.597
130.173	557.813
133.548	557.993
136.923	568.2
140.297	567.497
143.672	563.442
147.047	569.01
150.422	577.946
153.797	588.453
157.171	582.849
160.546	581.239
163.921	586.082
167.296	587.083
170.671	584.152
174.046	593.544
177.42	590.007
180.795	585.981
184.17	589.872
187.545	582.035
190.92	596.162
194.294	603.653
197.669	598.279
201.044	604.832
204.419	607.942
207.794	602.837
211.168	603.31
214.543	601.779
217.918	610.154
221.293	617.666
224.668	616.566
228.042	613.491
231.417	611.441
234.792	610.641
238.167	616.098
241.542	614.094
244.917	618.881
248.291	616.734
251.666	613.385
255.041	615.202
258.416	612.631
261.791	618.871
265.166	612.026
268.54	630.56
271.915	622.969
275.29	624.981
278.665	625.15
282.04	616.016
285.414	622.958
288.789	625.074
292.164	619.668
295.539	616.081
298.914	616.865
302.288	617.708
305.663	626.658
309.038	627.162
312.413	632.522
315.788	629.904
319.163	628.453
322.537	633.37
325.912	636.315
329.287	639.792
332.662	650.115
336.037	649.126
339.411	637.718
342.786	649.135
346.161	652.342
349.536	660.961
352.911	661.385
356.286	661.76
359.66	677.734
363.035	686.257
366.41	695.872
369.785	704.784
373.16	709.457
376.534	728.142
379.909	747.781
383.284	732.225
386.659	737.789
390.034	747.927
393.409	752.187
396.783	762.739
400.158	786.92
403.533	795.453
406.908	807.836
410.283	820.114
413.658	865.976
417.032	922.116
420.407	902.263
423.782	905.942
427.157	942.535
430.532	977.883
433.906	1016.92
437.281	1063.79
440.656	1096.97
444.031	1154.05
447.406	1199.64
450.781	1243.76
454.155	1284.83
457.53	1324.19
460.905	1378.15
464.28	1423.16
467.654	1486.67
471.029	1521.66
474.404	1556.08
477.779	1586.09
481.154	1614.97
484.529	1640.89
487.903	1641.67
491.278	1647.61
494.653	1628.43
498.028	1604.95
501.403	1579.53
504.777	1543.42
508.152	1506.03
511.527	1484.42
514.902	1512.63
518.277	1379.52
521.652	1335.44
525.026	1294.94
528.401	1260.38
531.776	1220.54
535.151	1197.44
538.526	1169.29
541.9	1165.82
545.275	1129.57
548.65	1124.58
552.025	1123.21
555.4	1089.73
558.775	1095.69
562.149	1089.22
565.524	1080.94
568.899	1074.62
572.274	1092.9
575.649	1073.09
579.024	1071.97
582.398	1062.22
585.773	1052.72
589.148	1056.47
592.523	1047.13
595.898	1043.45
599.272	1043.23
602.647	1041.09
606.022	1044.18
609.397	1047.25
612.772	1045.29
616.146	1057.66
619.521	1056.95
622.896	1059.19
626.271	1052.33
629.646	1059.75
633.021	1068.56
636.395	1075.61
639.77	1071.98
643.145	1080.59
646.52	1099.78
649.895	1095.77
653.269	1096.85
656.644	1091.91
660.019	1107.8
663.394	1103.97
666.769	1112.32
670.144	1141.16
673.518	1143.48
676.893	1157.21
680.268	1231.7
683.643	1209.25
687.018	1242.88
690.393	1281.66
693.767	1304.67
697.142	1358.24
700.517	1392.39
703.892	1441.11
707.266	1484.37
710.641	1541.33
714.016	1580.88
717.391	1620.07
720.766	1661.64
724.141	1733.42
727.515	1789.4
730.89	1840.6
734.265	1899.03
737.64	1975.28
741.015	2051.32
744.389	2154.46
747.764	2253.94
751.139	2382.4
754.514	2506.1
757.889	2645.6
761.264	2818.05
764.638	2965.88
768.013	3139.72
771.388	3295.22
774.763	3451.07
778.138	3564.67
781.513	3632.11
784.887	3658.43
788.262	3641.89
791.637	3587.86
795.012	3495.16
798.387	3344.54
801.761	3169.74
805.136	2983.71
808.511	2791.24
811.886	2590
815.261	2409.17
818.635	2274.16
822.01	2161.87
825.385	2069.56
828.76	1986.51
832.135	1932.87
835.51	1899.19
838.884	1859.22
842.259	1828.21
845.634	1807.7
849.009	1790.03
852.384	1765.96
855.759	1756.09
859.133	1735.81
862.508	1717.31
865.883	1714.53
869.258	1702.84
872.633	1706.35
876.007	1710.03
879.382	1712.16
882.757	1716.48
886.132	1725.38
889.507	1719.47
892.881	1732.55
896.256	1716.2
899.631	1716.9
903.006	1716.68
906.381	1706.96
909.756	1707.26
913.13	1696.23
916.505	1674.49
919.88	1674.55
923.255	1668.83
926.63	1661.65
930.005	1666.69
933.379	1668.53
936.754	1663.56
940.129	1646.44
943.504	1644.2
946.879	1616.9
950.253	1616.43
953.628	1606.62
957.003	1582.07
960.378	1577.81
963.753	1555.85
967.127	1552.96
970.502	1546.8
973.877	1535.96
977.252	1533.67
980.627	1537.62
984.001	1527.81
987.376	1518.13
990.751	1518.68
994.126	1510.07
997.501	1486.74
1000.88	1470.03
1004.25	1456.03
1007.62	1445.52
1011	1429.48
1014.38	1428.54
1017.75	1401.63
1021.12	1399.85
1024.5	1393.94
1027.87	1372.72
1031.25	1378.3
1034.62	1379.66
1038	1382.82
1041.37	1382.1
1044.75	1384.21
1048.12	1404.86
1051.5	1426.97
1054.87	1439.02
1058.25	1467.32
1061.62	1482.13
1065	1516.73
1068.37	1571.29
1071.75	1618.32
1075.12	1684.75
1078.5	1763.72
1081.87	1864.97
1085.25	1991.41
1088.62	2146.54
1092	2347.81
1095.37	2592.08
1098.74	2876.57
1102.12	3193.7
1105.49	3491.72
1108.87	3874.63
1112.24	4254.23
1115.62	4684.99
1118.99	5360.78
1122.37	6447.7
1125.74	8316.81
1129.12	11439.6
1132.49	16366.4
1135.87	23574
1139.24	30767.6
1142.62	32637
1145.99	31467.7
1149.37	32870.1
1152.74	33919
1156.12	28823.8
1159.49	20682.3
1162.87	14365.9
1166.24	10370.1
1169.62	7872.66
1172.99	6267.24
1176.37	5203.88
1179.74	4413.81
1183.12	3845.07
1186.49	3425.01
1189.87	3108.68
1193.24	2853.47
1196.62	2668.45
1199.99	2479.44
1203.37	2333.47
1206.74	2181.28
1210.11	2056.34
1213.49	1947.22
1216.86	1860.39
1220.24	1782.69
1223.61	1715.79
1226.99	1655.67
1230.36	1619.94
1233.74	1571.59
1237.11	1532.46
1240.49	1505.2
1243.86	1469.98
1247.24	1481.26
1250.61	1430.08
1253.99	1410.25
1257.36	1396.85
1260.74	1398.59
1264.11	1384.34
1267.49	1381.66
1270.86	1378.33
1274.24	1382.57
1277.61	1376.06
1280.98	1374.83
1284.36	1396.34
