Measurement: Raman, 780 nm, unoriented, Raman Data RAW
Mineral: Corundum
Rruff sample: R110096
Ideal chemistry: Al_2_O_3_
Locality: Synthetic
Source: Gemological Institute of America
Description: A red, cut (.49ct) ruby gemstone and rough (.68ct) fragment, flux grown, Ramaura produced.
Raman shift (cm-1)	intensity
147.047	126693
149.94	126736
152.832	126694
155.725	126680
158.618	126524
161.51	126182
164.403	125893
167.296	125432
170.189	125098
173.081	124685
175.974	124331
178.867	123988
181.759	123531
184.652	123136
187.545	122776
190.437	122484
193.33	122360
196.223	122080
199.115	121713
202.008	121185
204.901	120833
207.794	120428
210.686	120030
213.579	119442
216.472	119121
219.364	118506
222.257	117954
225.15	117277
228.042	116619
230.935	116089
233.828	115479
236.721	114909
239.613	114380
242.506	113694
245.399	113162
248.291	112614
251.184	112030
254.077	111442
256.969	110881
259.862	110485
262.755	110020
265.648	109609
268.54	108984
271.433	108508
274.326	107845
277.218	107463
280.111	106910
283.004	106510
285.897	105819
288.789	105261
291.682	104831
294.575	104209
297.467	103723
300.36	103120
303.253	102571
306.145	101951
309.038	101534
311.931	101084
314.824	100740
317.716	100219
320.609	99691.4
323.502	99291.5
326.394	98717.9
329.287	98489.7
332.18	98068.3
335.072	97763.2
337.965	97391.2
340.858	97123.9
343.75	96745.6
346.643	96339.7
349.536	96041.5
352.429	95626
355.321	95218.5
358.214	94888.1
361.107	94464.3
364	94056.3
366.892	93656.1
369.785	93470.5
372.678	92999.8
375.57	92595.9
378.463	92124.6
381.356	91853.1
384.248	91500.8
387.141	91210.4
390.034	90843.5
392.926	90492.6
395.819	90017.5
398.712	89809.5
401.605	89492.9
404.497	89166.5
407.39	88918.1
410.283	88649.1
413.175	88397.2
416.068	88313.3
418.961	87948.8
421.853	87546.1
424.746	87254.2
427.639	86886.7
430.532	86717.6
433.424	86224.1
436.317	86000.5
439.21	85685.4
442.102	85434
444.995	85168
447.888	84894.2
450.781	84523.4
453.673	84145.8
456.566	83881.5
459.459	83643.8
462.351	83330
465.244	82842.1
468.137	82573
471.029	82235.4
473.922	81912.7
476.815	81491.4
479.707	81094.5
482.6	80773.4
485.493	80353.2
488.386	80016.6
491.278	79744
494.171	79323.3
497.064	79038.5
499.956	78720.7
502.849	78373.8
505.742	78067.5
508.635	77662.1
511.527	77463.7
514.42	77097.4
517.313	76687.6
520.205	76341.2
523.098	75996.4
525.991	75564.8
528.883	75238.8
531.776	74949.9
534.669	74673.3
537.562	74368.4
540.454	74060.1
543.347	73651.7
546.24	73414.1
549.132	73087.8
552.025	72851.6
554.918	72585.3
557.81	72385.3
560.703	71970.1
563.596	71725.8
566.489	71513.5
569.381	71295.4
572.274	70959.9
575.167	70660.9
578.059	70408.6
580.952	70149.5
583.845	69856.9
586.737	69697.3
589.63	69442.6
592.523	69252.6
595.415	68974.7
598.308	68784.5
601.201	68412.7
604.094	68313.5
606.986	68016.5
609.879	67743
612.772	67577.6
615.664	67342.4
618.557	67086.1
621.45	66821.6
624.342	66631.4
627.235	66532.1
630.128	66225.7
633.021	66045.4
635.913	65747.6
638.806	65618.2
641.699	65395.4
644.591	65144.7
647.484	64927.6
650.377	64731.6
653.269	64473.8
656.162	64195.2
659.055	63924
661.948	63681.8
664.84	63431.6
667.733	63300.1
670.626	62942.5
673.518	62828.4
676.411	62673.8
679.304	62364.2
682.197	62027.4
685.089	61905.3
687.982	61768.4
690.875	61466.1
693.767	61265.8
696.66	61032.3
699.553	60773.6
702.445	60612.1
705.338	60425.9
708.231	60362.6
711.124	60132.5
714.016	59932.9
716.909	59691.2
719.802	59724.9
722.694	59437.9
725.587	59239.9
728.48	59080.7
731.372	58958.6
734.265	58735.5
737.158	58579.8
740.051	58301.3
742.943	58103.1
745.836	57924.5
748.729	57845.5
751.621	57614.7
754.514	57342.1
757.407	57196
760.299	56911.8
763.192	56720.1
766.085	56482.9
768.977	56180.9
771.87	56122.9
774.763	56075.3
777.656	55933.2
780.548	55732.8
783.441	55570.1
786.334	55406.2
789.226	55229.6
792.119	55066.5
795.012	54966.6
797.904	54744.5
800.797	54598.2
803.69	54392.5
806.583	54426.6
809.475	54251.4
812.368	54004.4
815.261	53804.9
818.153	53803.4
821.046	53629.6
823.939	53513.4
826.832	53280.2
829.724	53190.9
832.617	52995.6
835.51	52931.9
838.402	52806.1
841.295	52624.3
844.188	52347.1
847.08	52334.7
849.973	52113.7
852.866	52003.6
855.759	51832.4
858.651	51753.2
861.544	51548.6
864.437	51422.1
867.329	51222.4
870.222	51120.6
873.115	51043.1
876.007	50942.7
878.9	50730.6
881.793	50578.7
884.686	50395.4
887.578	50288.6
890.471	50147.2
893.364	50083.5
896.256	49874.2
899.149	49705.1
902.042	49615.1
904.934	49526.1
907.827	49470.6
910.72	49384.7
913.612	49322.5
916.505	49125.7
919.398	49070.5
922.291	48885.8
925.183	48809.2
928.076	48753.1
930.969	48683.6
933.861	48550.2
936.754	48444.2
939.647	48392
942.539	48245.5
945.432	48100.2
948.325	48030.6
951.218	47962
954.11	47910.6
957.003	47803.9
959.896	47691.4
962.788	47551.8
965.681	47399.4
968.574	47309.6
971.466	47186.2
974.359	47182.3
977.252	46951.8
980.145	46906.8
983.037	46844.1
985.93	46848.1
988.823	46744.9
991.715	46634.7
994.608	46621.8
997.501	46501
1000.39	46442.6
1003.29	46335.5
1006.18	46262.3
1009.07	46210
1011.96	46144.6
1014.86	46072.8
1017.75	45947.6
1020.64	45918.6
1023.53	45739.9
1026.43	45747.3
1029.32	45679.4
1032.21	45596.5
1035.11	45575.9
1038	45545.9
1040.89	45349.2
1043.78	45213.6
1046.68	45106.3
1049.57	45039.3
1052.46	44980.4
1055.36	44889.6
1058.25	44827.1
1061.14	44813.8
1064.03	44748.6
1066.93	44725.9
1069.82	44629.4
1072.71	44477.1
1075.6	44446
1078.5	44289.1
1081.39	44219.9
1084.28	44132.6
1087.17	44037.6
1090.07	44025.5
1092.96	43989.6
1095.85	43843.1
1098.74	43713.5
1101.64	43611.2
1104.53	43571.5
1107.42	43550.4
1110.32	43381.9
1113.21	43253.3
1116.1	43155.8
1118.99	43022.4
1121.89	42976.7
1124.78	43085.6
1127.67	42987.3
1130.57	43016.2
1133.46	42991.5
1136.35	43030
1139.24	42906.5
1142.14	42848.1
1145.03	42816.2
1147.92	42857.8
1150.81	42759.6
1153.71	42723
1156.6	42668.9
1159.49	42684
1162.38	42618.9
1165.28	42658.1
1168.17	42614.2
1171.06	42572.1
1173.96	42610.1
1176.85	42519.9
1179.74	42501.3
1182.63	42415.6
1185.53	42399.9
1188.42	42426.1
1191.31	42383.5
1194.2	42294.1
1197.1	42273.7
1199.99	42143.2
1202.88	42239.6
1205.78	42151.4
1208.67	42066.4
1211.56	42048.5
1214.45	42051.9
1217.35	42067.6
1220.24	41918.9
1223.13	41850.8
1226.02	41817.1
1228.92	41810.9
1231.81	41855.1
1234.7	41807.7
1237.6	41738.5
1240.49	41691.2
1243.38	41605.6
1246.27	41704.5
1249.17	41646.8
1252.06	41636.5
1254.95	41583.8
1257.84	41632.6
1260.74	41679.7
1263.63	41666.8
1266.52	41715.2
1269.41	41761.2
1272.31	41814.7
1275.2	41830.6
1278.09	41873.3
1280.98	41861.4
1283.88	41999.3
