Measurement: Raman, 532 nm, unoriented, Raman Data Processed
Mineral: Cosalite
Rruff sample: R060988
Ideal chemistry: Pb^2+^_2_Bi^3+^_2_S^2-^_5_
Locality: San Nicolas mine, Badajoz Provence, Spain
Source: Bob Jenkins
Description: Silver metallic prismatic crystals, exterior tarnish steel-blue, associated with quartz and yellowish-green crystals of a Bi oxide.
Raman shift (cm-1)	intensity
114.773	5.55862
118.148	111.517
121.523	182.61
124.898	315.615
128.273	325.704
131.648	340.979
135.022	316.006
138.397	324.154
141.772	326.604
145.147	330.668
148.522	321.739
151.896	268.641
155.271	272.617
158.646	257.125
162.021	281.165
165.396	252.433
168.77	235.509
172.145	235.502
175.52	190.948
178.895	221.816
182.27	172.254
185.644	231.415
189.019	157.382
192.394	174.831
195.769	187.132
199.144	192.971
202.519	187.396
205.893	208.946
209.268	231.98
212.643	245.093
216.018	208.963
219.393	261.17
222.767	260.127
226.142	214.401
229.517	253.458
232.892	214.84
236.267	254.189
239.642	215.324
243.016	255.667
246.391	256.59
249.766	224.907
253.141	207.629
256.516	168.157
259.89	118.789
263.265	111.212
266.64	112.967
270.015	87.8924
273.39	64.4652
276.764	64.3801
280.139	62.3677
283.514	31.5462
286.889	31.5005
290.264	10.0073
293.639	4.63104
297.013	14.7166
300.388	3.17371
303.763	28.2683
307.138	13.0588
310.513	2.48181
313.887	2.50854
317.262	9.13098
320.637	5.00324
324.012	18.3338
327.387	44.3435
330.762	17.2763
334.136	33.1508
337.511	42.9409
340.886	59.3965
344.261	52.6621
347.635	45.8236
351.01	61.5898
354.385	81.8019
357.76	61.3873
361.135	56.5789
364.51	59.1407
367.884	56.5897
371.259	49.5739
374.634	54.3806
378.009	55.4575
381.384	42.3331
384.759	9.40088
388.133	12.2386
391.508	35.0166
394.883	20.3177
398.258	38.3361
401.633	37.1292
405.007	29.8525
408.382	30.4746
411.757	22.7195
415.132	42.7631
418.507	15.2923
421.881	28.9215
425.256	36.0845
428.631	38.1278
432.006	24.9236
435.381	31.7795
438.755	39.0629
442.13	56.4908
445.505	33.0278
448.88	44.3852
452.255	29.5331
455.63	33.3051
459.004	30.3508
462.379	17.8025
465.754	24.1126
469.129	18.9522
472.504	16.8945
475.878	34.1706
479.253	26.6802
482.628	16.4046
486.003	29.1929
489.378	22.0036
492.752	28.5543
496.127	21.8799
499.502	2.03259
502.877	3.91379
506.252	22.7588
509.627	13.5903
513.001	15.2273
516.376	19.35
519.751	1.53046
523.126	3.23248
526.501	19.6689
529.875	25.6372
533.25	25.9188
536.625	14.5094
540	19.795
543.375	11.0546
546.75	39.7581
550.124	28.0987
553.499	4.77362
556.874	18.3132
560.249	0.90564
563.624	8.55542
566.998	13.1393
570.373	32.9196
573.748	15.2327
577.123	21.8479
580.498	23.7525
583.872	9.59271
587.247	23.1079
590.622	16.4434
593.997	23.4086
597.372	7.19961
600.747	15.1631
604.121	28.2815
607.496	43.8766
610.871	23.9141
614.246	29.0877
617.621	15.4953
620.995	36.1985
624.37	22.3483
627.745	28.6449
631.12	20.3923
634.495	23.3884
637.87	36.538
641.244	27.3025
644.619	14.2793
647.994	10.58
651.369	13.296
654.744	14.6014
658.118	23.6962
661.493	17.8071
664.868	6.49716
668.243	25.4452
671.618	17.8595
674.992	23.26
678.367	26.156
681.742	4.13052
685.117	24.6062
688.492	24.2801
691.866	29.5876
695.241	14.6627
698.616	35.3361
701.991	23.7334
705.366	10.9211
708.741	16.3676
712.115	33.2061
715.49	36.7208
718.865	38.406
722.24	27.2707
725.615	25.4356
728.99	33.7541
732.364	40.3309
735.739	23.0869
739.114	27.1591
742.489	13.2371
745.864	24.9211
749.238	47.1454
752.613	19.8944
755.988	39.4254
759.363	37.5266
762.738	41.1271
766.112	35.5338
769.487	20.0123
772.862	18.8066
776.237	4.74411
779.612	24.9065
782.986	6.85998
786.361	61.2786
789.736	32.8785
793.111	48.8004
796.486	32.5117
799.861	20.7216
803.235	38.0143
806.61	7.9588
809.985	16.3724
813.36	41.6875
816.735	36.5154
820.109	38.1067
823.484	36.0254
826.859	34.8279
830.234	15.5277
833.609	8.82221
836.984	35.9561
840.358	40.3339
843.733	22.8982
847.108	21.8185
850.483	19.3082
853.858	33.589
857.232	9.83908
860.607	7.43903
863.982	15.1146
867.357	4.17355
870.732	21.7044
874.106	28.6487
877.481	38.2393
880.856	23.1865
884.231	9.75467
887.606	37.309
890.981	20.0193
894.355	22.2335
897.73	26.2205
901.105	7.09213
904.48	20.3861
907.855	37.2317
911.229	11.5998
914.604	6.73819
917.979	21.1225
921.354	15.3686
924.729	48.2696
928.104	4.28442
931.478	25.8679
934.853	17.6829
938.228	19.7515
941.603	26.2186
944.977	26.9032
948.352	23.611
951.727	27.1999
955.102	18.8743
958.477	40.5674
961.852	29.0184
965.226	26.1713
968.601	39.0652
971.976	6.73203
975.351	36.2097
978.726	13.0726
982.101	30.8251
985.475	1.02625
988.85	31.6008
992.225	15.1938
995.6	8.09866
998.975	15.1262
1002.35	13.6668
1005.72	11.9192
1009.1	7.73379
1012.47	9.93143
1015.85	13.6332
1019.22	44.7483
1022.6	15.3034
1025.97	45.9246
1029.35	41.5699
1032.72	19.9682
1036.1	22.3759
1039.47	11.2377
1042.85	50.095
1046.22	0.650024
1049.6	7.74658
1052.97	15.2382
1056.35	51.5857
1059.72	27.7584
1063.1	12.869
1066.47	6.14899
1069.85	25.3229
1073.22	59.6176
1076.6	39.9989
1079.97	4.84055
1083.35	13.6212
1086.72	42.1655
1090.09	53.8141
1093.47	18.873
1096.84	28.7934
1100.22	4.48465
1103.59	32.2037
1106.97	10.6526
1110.34	52.9472
1113.72	45.0857
1117.09	26.7648
1120.47	37.821
1123.84	26.8224
1127.22	17.2787
1130.59	29.2182
1133.97	39.7825
1137.34	30.4907
1140.72	14.2181
1144.09	13.0944
1147.47	29.9358
1150.84	23.3148
1154.22	43.1667
1157.59	4.26566
1160.97	19.063
1164.34	20.7404
1167.71	5.31604
1171.09	39.3213
1174.46	0.939636
1177.84	2.70566
1181.21	39.1388
1184.59	19.7275
1187.96	21.8008
1191.34	18.0795
1194.71	29.0414
1198.09	17.7668
1201.46	14.0453
1204.84	19.1529
1208.21	38.0361
1211.59	15.6037
1214.96	10.692
1218.34	39.5584
1221.71	15.347
1225.09	23.699
1228.46	38.5035
1231.84	49.0499
1235.21	14.3995
1238.59	27.0545
1241.96	13.6095
1245.34	35.3322
1248.71	9.327
1252.09	10.9439
1255.46	0.702942
1258.84	20.1425
1262.21	19.3465
1265.59	21.2094
1268.96	31.2802
1272.33	14.7453
1275.71	31.3098
1279.08	12.0112
1282.46	39.7984
1285.83	7.25806
1289.21	57.8083
1292.58	27.8346
1295.96	9.68839
1299.33	10.8656
