Measurement: Raman, 785 nm, unoriented, Raman Data Processed
Mineral: Cosalite
Rruff sample: R060988
Ideal chemistry: Pb^2+^_2_Bi^3+^_2_S^2-^_5_
Locality: San Nicolas mine, Badajoz Provence, Spain
Source: Bob Jenkins
Description: Silver metallic prismatic crystals, exterior tarnish steel-blue, associated with quartz and yellowish-green crystals of a Bi oxide.
Raman shift (cm-1)	intensity
121.528	0
124.421	616.324
127.314	3913.05
130.206	6616.83
133.099	7710.28
135.992	2705.11
138.884	1226.44
141.777	1404.98
144.67	2608.11
147.562	4279.77
150.455	4492.29
153.348	3124.16
156.24	2224.47
159.133	2134.02
162.026	2867.1
164.918	2176.79
167.811	1537.46
170.704	1347.71
173.597	984.495
176.489	657.148
179.382	446.082
182.275	297.133
185.167	170.09
188.06	78.4946
190.953	11.6797
193.845	94.8447
196.738	32.0523
199.631	32.2324
202.524	23.0483
205.416	4.60156
208.309	124.169
211.202	84.4458
214.094	73.2998
216.987	27.6001
219.88	5.31104
222.773	86.2356
225.665	137.098
228.558	29.2261
231.451	138.208
234.343	190.092
237.236	192.362
240.129	264.113
243.021	268.749
245.914	288.453
248.807	335.22
251.7	291.587
254.592	338.01
257.485	279.015
260.378	257.49
263.27	183.882
266.163	179.733
269.056	182.639
271.948	127.223
274.841	213.756
277.734	264.889
280.627	268.549
283.519	319.14
286.412	279.714
289.305	183.661
292.197	220.969
295.09	143.995
297.983	116.449
300.875	60.4966
303.768	42.5842
306.661	46.8848
309.553	50.9949
312.446	32.5798
315.339	83.2017
318.231	90.3091
321.124	47.3755
324.017	42.7617
326.91	19.3114
329.802	177.911
332.695	133.669
335.588	162.919
338.48	214.21
341.373	236.497
344.266	204.258
347.159	201.165
350.051	185.642
352.944	222.163
355.837	210.463
358.729	206.787
361.622	221.062
364.515	162.32
367.407	295.827
370.3	235.367
373.193	251.485
376.086	189.931
378.978	196.162
381.871	163.18
384.764	93.9285
387.656	59.4938
390.549	83.8962
393.442	58.1731
396.334	46.0802
399.227	107.581
402.12	71.7052
405.012	65.1764
407.905	76.1066
410.798	134.398
413.691	100.969
416.583	78.6602
419.476	36.5613
422.369	99.7803
425.261	78.5286
428.154	92.5444
431.047	30.4605
433.94	25.7251
436.832	21.7057
439.725	4.18018
442.618	30.1088
445.51	70.5868
448.403	77.0028
451.296	59.906
454.188	30.2134
457.081	9.28626
459.974	75.5266
462.866	56.8746
465.759	87.2876
468.652	70.5123
471.545	59.3512
474.437	80.9806
477.33	50.2656
480.223	70.0548
483.115	3.08582
486.008	54.3634
488.901	17.7889
491.793	75.0225
494.686	30.3179
497.579	108.471
500.472	32.7632
503.364	91.838
506.257	21.3342
509.15	17.379
512.042	10.9883
514.935	42.6271
517.828	20.8154
520.721	37.5321
523.613	57.2756
526.506	83.1443
529.399	62.4571
532.291	14.9354
535.184	29.5159
538.077	55.4218
540.969	26.865
543.862	124.353
546.755	95.8058
549.647	22.4109
552.54	75.9006
555.433	59.2513
558.326	57.0179
561.218	4.37732
564.111	55.2085
567.004	14.6648
569.896	10.5275
572.789	35.1974
575.682	37.6401
578.574	51.1676
581.467	124.783
584.36	37.4325
587.253	40.3937
590.145	64.2812
593.038	10.2568
595.931	80.5118
598.823	31.0243
601.716	109.862
604.609	44.9592
607.501	122.925
610.394	91.9114
613.287	64.824
616.179	82.9022
619.072	44.4365
621.965	34.3876
624.858	66.0905
627.75	33.8986
630.643	54.9264
633.536	45.9237
636.428	77.3938
639.321	66.335
642.214	28.8854
645.106	0.091797
647.999	8.71936
650.892	45.7744
653.784	25.0106
656.677	58.0972
659.57	65.0177
662.463	44.9347
665.355	16.8219
668.248	57.5786
671.141	62.8975
674.033	72.9305
676.926	85.0806
679.819	95.6002
682.712	59.2872
685.604	30.9159
688.497	61.2223
691.39	90.4214
694.282	63.0181
697.175	71.8844
700.068	43.1597
702.96	18.995
705.853	100.505
708.746	86.0273
711.639	125.101
714.531	19.8977
717.424	76.0105
720.317	27.8009
723.209	130.37
726.102	64.7628
728.995	51.1621
731.887	54.0358
734.78	20.8159
737.673	97.713
740.566	112.225
743.458	103.56
746.351	79.24
749.244	91.2447
752.136	101.558
755.029	95.5271
757.922	112.337
760.814	73.7544
763.707	76.6111
766.6	18.2733
769.492	31.9032
772.385	37.071
775.278	164.67
778.171	94.8217
781.063	90.9381
783.956	119.028
786.849	85.0325
789.741	96.043
792.634	143.428
795.527	81.3529
798.419	28.12
801.312	65.3511
804.205	77.7233
807.098	89.0847
809.99	138.006
812.883	127.89
815.776	126.982
818.668	99.3883
821.561	154.865
824.454	135.445
827.346	64.3492
830.239	99.165
833.132	107.907
836.024	48.155
838.917	76.6223
841.81	115.391
844.703	74.7974
847.595	34.228
850.488	58.3625
853.381	49.8074
856.273	30.8848
859.166	78.7036
862.059	7.53088
864.952	49.9603
867.844	69.4437
870.737	33.6057
873.63	112.132
876.522	95.1749
879.415	57.0095
882.308	33.4526
885.2	68.8411
888.093	13.9473
890.986	15.1251
893.879	101.149
896.771	79.3651
899.664	52.5311
902.557	47.4437
905.449	87.0444
908.342	52.7897
911.235	117.587
914.127	22.5352
917.02	58.4092
919.913	43.0418
922.806	69.9144
925.698	80.7938
928.591	33.592
931.484	40.4552
934.376	38.0837
937.269	44.9291
940.162	33.3593
943.054	106.015
945.947	51.9999
948.84	56.0292
951.732	69.7644
954.625	94.0394
957.518	62.1876
960.411	105.918
963.303	26.8652
966.196	68.6656
969.089	80.8356
971.981	80.4127
974.874	98.3781
977.767	99.7731
980.659	82.3446
983.552	50.0389
986.445	72.8438
989.338	47.7506
992.23	31.6589
995.123	64.6127
998.016	120.478
1000.91	165.074
1003.8	116.282
1006.69	85.8046
1009.59	154.876
1012.48	117.778
1015.37	72.9647
1018.26	89.9152
1021.16	1.14075
1024.05	20.1583
1026.94	65.0093
1029.84	31.8722
1032.73	38.8541
1035.62	126.286
1038.51	125.922
1041.41	71.3701
1044.3	125.368
1047.19	83.9056
1050.08	78.199
1052.98	113.871
1055.87	62.9481
1058.76	43.4109
1061.65	3.52942
1064.55	82.634
1067.44	91.6429
1070.33	111.862
1073.23	61.5116
1076.12	89.8236
1079.01	51.6754
1081.9	57.0072
1084.8	86.2373
1087.69	85.2842
1090.58	63.3685
1093.47	95.0931
1096.37	55.6416
1099.26	103.636
1102.15	46.6133
1105.05	44.7949
1107.94	27.5817
1110.83	60.1085
1113.72	69.2906
1116.62	68.0753
1119.51	6.83398
1122.4	63.1525
1125.29	90.4477
1128.19	12.4143
1131.08	122.439
1133.97	49.6154
1136.87	28.4831
1139.76	16.3147
1142.65	77.2568
1145.54	23.532
1148.44	112.924
1151.33	30.9858
1154.22	22.7753
1157.11	98.0635
1160.01	22.2264
1162.9	81.7181
1165.79	84.6365
1168.68	96.9313
1171.58	89.8938
1174.47	71.6211
1177.36	25.9055
1180.26	70.13
1183.15	131.962
1186.04	67.2485
1188.93	106.447
1191.83	34.0737
1194.72	10.6809
1197.61	93.3356
1200.51	72.8436
1203.4	90.1434
1206.29	23.4026
1209.18	75.2314
1212.08	142.822
1214.97	119.14
1217.86	82.6371
1220.75	114.34
1223.65	112.987
1226.54	90.7872
1229.43	99.1077
1232.32	93.1258
1235.22	19.8872
1238.11	35.7468
1241	50.3844
1243.89	115.04
1246.79	42.1736
1249.68	168.692
1252.57	118.757
1255.47	102.146
1258.36	31.7323
1261.25	169.002
1264.14	67.5374
1267.04	44.9106
1269.93	114.122
