Measurement: Raman, 780 nm, unoriented, Raman Data Processed
Mineral: Covellite
Rruff sample: R060129
Ideal chemistry: Cu^1+^S
Locality: Butte, Montana, USA
Source: University of Arizona Mineral Museum
Description: Iridescent blue metallic hexagonal plates
Measured chemistry: Cu_1.00_S_1.00_
Raman shift (cm-1)	intensity
134.452	0
137.344	0.225006
140.237	3.98881
143.13	2.17967
146.022	1.73195
148.915	0.108687
151.808	0.246031
154.701	0.361885
157.593	0.367297
160.486	0.302997
163.379	0.17105
166.271	1.16095
169.164	0.808955
172.057	1.84596
174.949	0.872281
177.842	1.19236
180.735	1.98836
183.627	0.203561
186.52	1.39816
189.413	0.134513
192.306	0.259898
195.198	0.06698
198.091	0.150466
200.984	1.00127
203.876	1.83526
206.769	0.998757
209.662	1.52415
212.554	1.28198
215.447	1.30145
218.34	2.63488
221.233	2.79511
224.125	2.30632
227.018	1.93313
229.911	1.17422
232.803	3.23134
235.696	3.89546
238.589	4.59556
241.482	4.05739
244.374	4.92283
247.267	4.9069
250.16	4.14738
253.052	3.17774
255.945	1.20452
258.838	0.892572
261.73	0.779065
264.623	0.699655
267.516	0.634301
270.408	0.077102
273.301	0.168731
276.194	0.094562
279.087	0.051244
281.979	0.35469
284.872	0.088058
287.765	0.386614
290.657	0.004532
293.55	0.453304
296.443	0.265557
299.335	0.273197
302.228	0.153096
305.121	0.21166
308.014	0.357485
310.906	0.466353
313.799	0.906276
316.692	0.529871
319.584	0.340188
322.477	0.850487
325.37	0.752863
328.262	0.48008
331.155	0.272936
334.048	0.212532
336.94	1.00495
339.833	0.066534
342.726	0.654531
345.619	0.602485
348.511	0.573875
351.404	0.849982
354.297	0.351779
357.189	0.616307
360.082	0.9816
362.975	0.465494
365.868	0.563757
368.76	0.536496
371.653	0.843404
374.546	0.62879
377.438	0.05628
380.331	0.054527
383.224	0.151807
386.116	0.656801
389.009	0.237602
391.902	0.227705
394.795	0.159366
397.687	0.308862
400.58	0.994931
403.473	0.19499
406.365	0.123591
409.258	0.032672
412.151	0.512628
415.043	0.05099
417.936	0.015412
420.829	0.220914
423.721	0.195758
426.614	0.2064
429.507	0.295455
432.399	0.069634
435.292	0.030399
438.185	0.003061
441.078	0.0569
443.97	0.73857
446.863	0.69775
449.756	0.041242
452.648	0.926538
455.541	0.973136
458.434	1.26545
461.327	2.12089
464.219	1.86173
467.112	2.98263
470.005	3.1935
472.897	4.08533
475.79	2.92706
478.683	1.24382
481.575	0.603664
484.468	0.681496
487.361	0.700457
490.253	0.228832
493.146	0.706303
496.039	0.613908
498.932	1.08459
501.824	0.550377
504.717	0.374971
507.61	0.270516
510.502	0.126572
513.395	0.801827
516.288	0.763474
519.181	0.675685
522.073	0.426345
524.966	0.232256
527.859	0.136202
530.751	0.117596
533.644	0.246406
536.537	0.343952
539.429	0.993649
542.322	2.26157
545.215	3.46744
548.107	4.60088
551	4.18001
553.893	2.00196
556.785	1.1158
559.678	0.624514
562.571	0.339083
565.464	0.030726
568.356	0.055852
571.249	0.02355
574.142	1.00669
577.034	0.630276
579.927	0.750166
582.82	0.732625
585.712	0.341387
588.605	0.579609
591.498	1.19341
594.391	0.63588
597.283	0.65225
600.176	1.29558
603.069	0.241543
605.961	0.352145
608.854	0.660793
611.747	0.212874
614.639	0.327021
617.532	0.400602
620.425	0.346574
623.318	0.750391
626.21	0.728243
629.103	0.013322
631.996	0.530669
634.888	0.004534
637.781	0.588856
640.674	0.039453
643.567	0.779821
646.459	0.482549
649.352	0.35698
652.245	0.736312
655.137	1.0304
658.03	0.608945
660.923	0.937558
663.815	0.881361
666.708	0.098545
669.601	0.958989
672.494	0.696968
675.386	0.576372
678.279	0.628416
681.172	0.866729
684.064	0.087807
686.957	0.431274
689.85	0.914431
692.742	0.095891
695.635	0.571694
698.528	0.105424
701.42	0.026825
704.313	0.452842
707.206	0.333114
710.098	0.632825
712.991	0.897694
715.884	0.241962
718.777	1.00124
721.669	0.164252
724.562	1.30473
727.455	0.249226
730.347	0.29571
733.24	0.305831
736.133	0.296546
739.025	0.58944
741.918	0.217585
744.811	0.430957
747.704	0.078289
750.596	0.488583
753.489	0.021226
756.382	0.075232
759.274	0.598417
762.167	0.386681
765.06	0.070711
767.952	0.356824
770.845	0.105156
773.738	0.509286
776.631	0.469349
779.523	0.63656
782.416	0.369735
785.309	0.271601
788.201	0.000775
791.094	0.811496
793.987	0.263038
796.88	0.118618
799.772	1.01267
802.665	0.404646
805.558	0.538555
808.45	1.13356
811.343	0.447807
814.236	1.09095
817.128	0.334881
820.021	0.898869
822.914	1.06887
825.807	0.653441
828.699	1.07621
831.592	0.558423
834.485	0.887418
837.377	1.10454
840.27	1.31409
843.163	0.906012
846.055	1.30975
848.948	1.4518
851.841	1.32871
854.734	0.938464
857.626	0.975982
860.519	1.64444
863.412	0.898234
866.304	0.554416
869.197	1.18589
872.09	0.321035
874.982	0.842055
877.875	0.918775
880.768	1.79219
883.66	0.812102
886.553	0.7635
889.446	1.03189
892.338	0.436801
895.231	0.70694
898.124	0.133733
901.017	0.196959
903.909	0.519728
906.802	0.107667
909.695	0.463631
912.587	0.45537
915.48	0.476766
918.373	0.140878
921.265	0.003082
924.158	0.252384
927.051	0.131807
929.944	0.139043
932.836	0.313566
935.729	1.01655
938.622	0.378569
941.514	0.516767
944.407	0.456834
947.3	0.008302
950.192	0.209244
953.085	0.514376
955.978	0.321883
958.87	0.415695
961.763	0.672362
964.656	0.593389
967.549	0.796609
970.441	0.969364
973.334	0.304651
976.227	0.6959
979.119	0.579581
982.012	1.23617
984.905	0.027851
987.798	0.176394
990.69	0.670999
993.583	0.685245
996.476	0.150101
999.368	0.575864
1002.26	0.764664
1005.15	0.206557
1008.05	0.235384
1010.94	0.757939
1013.83	0.677224
1016.73	0.010353
1019.62	0.418937
1022.51	0.662813
1025.4	0.528076
1028.3	1.38422
1031.19	0.2745
1034.08	1.05872
1036.97	1.05435
1039.87	0.572112
1042.76	0.834754
1045.65	0.322075
1048.54	0.188329
1051.44	0.578114
1054.33	0.040699
1057.22	0.308167
1060.12	0.228104
1063.01	1.13662
1065.9	0.286262
1068.79	0.761419
1071.69	0.120004
1074.58	0.698825
1077.47	0.536868
1080.36	0.258062
1083.26	0.286818
1086.15	0.649803
1089.04	0.296374
1091.93	0.300784
1094.83	0.664817
1097.72	0.749558
1100.61	0.137521
1103.51	0.107148
1106.4	0.040789
1109.29	0.736797
1112.18	0.066108
1115.08	0.536165
1117.97	0.300605
1120.86	0.542589
1123.75	0.702421
1126.65	0.854278
1129.54	0.806816
1132.43	1.00651
1135.33	0.234006
1138.22	0.93017
1141.11	0.910461
1144	0.344358
1146.9	0.226716
1149.79	0.520673
1152.68	0.908258
1155.57	0.900771
1158.47	0.529314
1161.36	0.095858
1164.25	0.321294
1167.14	0.538842
1170.04	0.703612
1172.93	0.842175
1175.82	0.862534
1178.72	1.16969
1181.61	0.053123
1184.5	0.859722
1187.39	0.481971
1190.29	0.576404
1193.18	0.841595
1196.07	0.955178
1198.96	1.07111
1201.86	0.970164
1204.75	0.079051
1207.64	1.23304
1210.54	0.641863
1213.43	0.603968
1216.32	0.100507
1219.21	0.834013
1222.11	0.832522
1225	0.554428
1227.89	1.00751
1230.78	0.293744
1233.68	0.800043
1236.57	0.557363
1239.46	0.756814
1242.36	0.543696
1245.25	0.571382
1248.14	0.639755
1251.03	0.618299
1253.93	0.887214
1256.82	0.356187
1259.71	0.880427
1262.6	1.32953
1265.5	0.733272
1268.39	0.435532
1271.28	0.301612
1274.17	0.458996
1277.07	0.088134
1279.96	0.666386
1282.85	0.608367
1285.74	0.026015
