Measurement: Raman, 785 nm, unoriented, Raman Data Processed
Mineral: Crednerite
Rruff sample: R070404
Ideal chemistry: Cu^1+^Mn^3+^O_2_
Locality: Merehead, Mendip Hills, Somerset, England, United Kingdom
Source: Michael Scott
Description: Platy iron-black striated crystals with well-defined cleavage planes
Raman shift (cm-1)	intensity
162.964	0
165.856	29.8186
168.749	47.5303
171.642	54.8865
174.534	100.692
177.427	60.8972
180.32	41.4256
183.212	13.6438
186.105	15.7163
188.998	98.1611
191.891	64.5955
194.783	56.0834
197.676	33.7169
200.569	9.50793
203.461	44.2024
206.354	32.3337
209.247	37.3742
212.139	14.8239
215.032	30.7629
217.925	10.2501
220.818	40.2269
223.71	29.6444
226.603	12.8695
229.496	23.0566
232.388	27.3683
235.281	32.9016
238.174	47.9657
241.066	38.1482
243.959	53.9346
246.852	39.4398
249.745	42.2786
252.637	63.5498
255.53	64.4893
258.423	53.9149
261.315	49.0358
264.208	42.4878
267.101	39.4459
269.993	59.546
272.886	38.493
275.779	46.2159
278.672	35.7169
281.564	50.111
284.457	49.1239
287.35	45.9094
290.242	39.6323
293.135	38.846
296.028	21.3523
298.921	34.6192
301.813	20.7018
304.706	49.6246
307.599	45.7792
310.491	39.6907
313.384	40.3365
316.277	17.5633
319.169	10.171
322.062	8.43652
324.955	21.3054
327.847	8.45764
330.74	17.1627
333.633	17.9203
336.526	3.79825
339.418	3.26346
342.311	11.5179
345.204	19.0861
348.096	9.80176
350.989	6.31043
353.882	14.7273
356.774	16.1661
359.667	2.43127
362.56	4.9501
365.452	5.47589
368.345	10.9894
371.238	12.2776
374.131	27.3603
377.023	38.4543
379.916	37.0036
382.809	24.2703
385.701	44.7782
388.594	33.8922
391.487	19.117
394.38	25.8649
397.272	22.1741
400.165	25.1346
403.058	15.3124
405.95	32.6864
408.843	3.70215
411.736	8.95676
414.628	12.7309
417.521	17.7609
420.414	11.6864
423.307	12.4807
426.199	30.6001
429.092	9.74918
431.985	23.7176
434.877	30.2036
437.77	0.68335
440.663	25.7882
443.555	40.716
446.448	17.774
449.341	33.9826
452.234	51.7462
455.126	48.9858
458.019	45.8304
460.912	69.5584
463.804	53.9916
466.697	49.1901
469.59	46.3658
472.483	50.8525
475.375	35.599
478.268	33.362
481.161	23.2675
484.053	16.5468
486.946	17.3882
489.839	27.7181
492.731	2.66333
495.624	15.4601
498.517	9.74927
501.409	11.541
504.302	1.98428
507.195	14.1227
510.088	11.7432
512.98	4.25915
515.873	18.8631
518.766	20.0143
521.658	13.4604
524.551	15.0644
527.444	32.6987
530.337	10.1305
533.229	46.0193
536.122	38.9564
539.015	57.626
541.907	114.756
544.8	117.776
547.693	130.034
550.585	132.407
553.478	152.632
556.371	150.919
559.263	155.433
562.156	167.205
565.049	189.13
567.942	225.803
570.834	208.611
573.727	224.816
576.62	243.919
579.512	225.737
582.405	224.272
585.298	215.312
588.19	194.559
591.083	189.461
593.976	132.159
596.869	145.725
599.761	108.791
602.654	88.807
605.547	88.8459
608.439	57.1956
611.332	54.2463
614.225	49.1183
617.117	47.8924
620.01	36.231
622.903	26.4826
625.795	43.7484
628.688	26.1104
631.581	55.0641
634.474	58.1431
637.366	107.954
640.259	107.446
643.152	94.4093
646.044	130.385
648.937	158.788
651.83	156.983
654.722	166.143
657.615	152.82
660.508	160.313
663.401	122.248
666.293	66.6019
669.186	74.3409
672.079	40.6214
674.971	33.4316
677.864	30.9478
680.757	15.7697
683.649	8.8049
686.542	4.55228
689.435	17.7004
692.328	2.63269
695.22	21.2551
698.113	5.41708
701.006	31.3421
703.898	5.76285
706.791	6.51878
709.684	0.243881
712.577	2.32938
715.469	24.149
718.362	34.1788
721.255	8.01179
724.147	20.4461
727.04	25.9848
729.933	2.27835
732.825	27.9745
735.718	8.4922
738.611	20.459
741.504	15.1218
744.396	20.0015
747.289	13.2685
750.182	24.0168
753.074	31.8562
755.967	15.5675
758.86	46.0944
761.752	39.7098
764.645	20.5965
767.538	14.6356
770.431	35.8819
773.323	31.57
776.216	29.0993
779.109	33.5103
782.001	13.8242
784.894	49.6701
787.787	10.209
790.679	44.1179
793.572	15.8232
796.465	22.8117
799.357	14.0779
802.25	27.0269
805.143	20.8973
808.036	15.0322
810.928	17.0605
813.821	2.04166
816.714	3.68233
819.606	17.0622
822.499	23.738
825.392	22.6222
828.284	14.1005
831.177	7.42821
834.07	13.7812
836.963	16.9627
839.855	4.79527
842.748	26.9442
845.641	0.720596
848.533	10.8342
851.426	20.6112
854.319	18.179
857.212	14.7213
860.104	24.6753
862.997	20.4738
865.89	27.2388
868.782	23.9584
871.675	14.0728
874.568	15.0196
877.46	5.33798
880.353	40.9473
883.246	24.3603
886.139	9.61403
889.031	8.61359
891.924	12.8074
894.817	14.2826
897.709	23.1617
900.602	24.9764
903.495	1.21005
906.388	11.6037
909.28	7.5054
912.173	27.0258
915.066	21.3489
917.958	15.2205
920.851	9.24774
923.744	27.3348
926.636	4.54182
929.529	7.11113
932.422	19.7674
935.314	3.8924
938.207	24.7635
941.1	6.50502
943.993	19.7918
946.885	0.238174
949.778	26.6344
952.671	19.4118
955.563	25.7128
958.456	23.9955
961.349	30.0838
964.241	17.3453
967.134	19.3377
970.027	30.3744
972.92	19.3017
975.812	20.2507
978.705	27.3786
981.598	35.0282
984.49	4.52348
987.383	13.8367
990.276	25.4844
993.168	2.51714
996.061	46.0183
998.954	14.5218
1001.85	11.1982
1004.74	31.5572
1007.63	24.4197
1010.52	22.1138
1013.42	17.8176
1016.31	17.4388
1019.2	22.1647
1022.1	12.761
1024.99	11.9757
1027.88	21.7519
1030.77	38.4237
1033.67	28.6571
1036.56	34.4603
1039.45	51.1459
1042.34	35.7774
1045.24	13.2863
1048.13	25.9996
1051.02	6.30901
1053.91	6.82248
1056.81	28.6315
1059.7	16.6787
1062.59	17.6135
1065.49	30.3973
1068.38	30.8171
1071.27	2.57065
1074.16	27.4701
1077.06	18.4033
1079.95	4.80333
1082.84	25.7782
1085.73	17.1317
1088.63	20.0168
1091.52	22.112
1094.41	9.66685
1097.31	34.6763
1100.2	16.6259
1103.09	6.80397
1105.98	21.2809
1108.88	32.0435
1111.77	2.41771
1114.66	16.6398
1117.56	15.861
1120.45	10.5401
1123.34	5.55547
1126.23	5.33046
1129.12	22.8513
1132.02	19.8655
1134.91	10.6019
1137.8	0.115265
1140.7	15.9327
1143.59	17.2915
1146.48	19.2027
1149.37	8.48319
1152.27	14.1052
1155.16	13.9701
1158.05	25.3546
1160.94	17.9764
1163.84	10.6465
1166.73	1.53426
1169.62	5.24837
1172.52	11.3067
1175.41	13.6043
1178.3	13.3271
1181.19	6.73698
1184.09	9.04311
1186.98	10.4463
1189.87	15.4829
1192.77	30.1472
1195.66	15.645
1198.55	13.5916
1201.44	14.2064
1204.34	18.6046
1207.23	5.12526
1210.12	30.6094
1213.01	24.8769
1215.91	1.56914
1218.8	3.00171
