Measurement: Raman, 780 nm, unoriented, Raman Data Processed
Mineral: Crichtonite
Rruff sample: R060314
Ideal chemistry: Sr(Mn^2+^,Y^3+^,U^6+^)Fe^2+^_2_(Ti^4+^,Fe^3+^,Cr^3+^,V^5+^)_18_(O,OH)_38_
Locality: Fazenda Guariba, Minas Gerais, Brazil
Source: Michael Scott
Description: Black colored rhombohedral single crystal
Raman shift (cm-1)	intensity
146.977	0
149.869	3.22601
152.762	6.29755
155.655	3.60303
158.547	2.60028
161.44	1.10156
164.333	3.91669
167.226	4.35407
170.118	6.92725
173.011	7.72369
175.904	12.9297
178.796	13.667
181.689	12.312
184.582	11.4162
187.474	12.7053
190.367	11.2628
193.26	15.6992
196.153	10.8652
199.045	7.07056
201.938	3.60272
204.831	2.55908
207.723	0.149597
210.616	5.34741
213.509	2.0946
216.401	1.86865
219.294	0.978027
222.187	3.276
225.079	2.90405
227.972	3.49823
230.865	3.27167
233.758	8.04822
236.65	6.94934
239.543	8.4184
242.436	10.7271
245.328	7.93646
248.221	7.82202
251.114	6.61572
254.006	4.00885
256.899	7.84589
259.792	5.13489
262.685	6.19556
265.577	3.62207
268.47	8.13348
271.363	5.85895
274.255	4.39056
277.148	2.90033
280.041	2.58057
282.933	1.11139
285.826	6.42779
288.719	3.19458
291.612	7.48242
294.504	0.871765
297.397	0.198364
300.29	4.92511
303.182	1.86151
306.075	5.4184
308.968	4.9906
311.861	5.39349
314.753	6.75745
317.646	7.0401
320.539	5.00281
323.431	4.36249
326.324	7.99731
329.217	4.2218
332.109	12.5633
335.002	2.53229
337.895	3.26056
340.788	5.00586
343.68	5.46271
346.573	1.6247
349.466	1.41907
352.358	2.03888
355.251	1.27789
358.144	4.21033
361.036	0.388184
363.929	1.95679
366.822	2.20215
369.715	4.15503
372.607	3.86792
375.5	1.71277
378.393	0.260803
381.285	3.04974
384.178	1.85913
387.071	0.341431
389.964	2.23389
392.856	3.6004
395.749	4.17859
398.642	2.47046
401.534	5.79748
404.427	5.71533
407.32	7.5426
410.212	8.29865
413.105	10.6984
415.998	8.72559
418.89	6.84723
421.783	8.02606
424.676	8.66193
427.569	9.73126
430.461	6.77216
433.354	8.96912
436.247	4.35352
439.139	4.43817
442.032	6.87701
444.925	0.692078
447.817	5.3515
450.71	3.7279
453.603	2.98218
456.496	3.03638
459.388	4.94665
462.281	3.70935
465.174	5.82165
468.066	0.362854
470.959	2.55756
473.852	2.99243
476.745	2.79413
479.637	0.674988
482.53	1.53101
485.423	3.43854
488.315	4.08441
491.208	4.85663
494.101	8.67511
496.993	2.04407
499.886	4.02154
502.779	6.26623
505.671	6.58466
508.564	3.26581
511.457	6.09729
514.35	4.65662
517.242	4.49481
520.135	5.30621
523.028	0.490723
525.92	0.718384
528.813	0.8703
531.706	1.46228
534.598	0.685791
537.491	1.9917
540.384	1.72858
543.277	3.21722
546.169	2.43133
549.062	1.48975
551.955	0.635376
554.847	4.52136
557.74	0.653931
560.633	1.86676
563.525	3.32574
566.418	0.134705
569.311	3.71435
572.204	2.95837
575.096	1.64581
577.989	3.58838
580.882	2.88971
583.774	4.97388
586.667	1.58264
589.56	3.13373
592.452	4.22418
595.345	5.83191
598.238	5.07373
601.131	5.55689
604.023	3.90314
606.916	6.26605
609.809	3.37994
612.701	3.43658
615.594	4.33954
618.487	6.23218
621.38	4.12244
624.272	6.54205
627.165	7.98053
630.058	8.82434
632.95	7.62335
635.843	5.31079
638.736	6.62201
641.628	6.68744
644.521	4.73248
647.414	2.28424
650.307	0.951904
653.199	1.07745
656.092	2.35132
658.985	0.862183
661.877	2.37146
664.77	1.14319
667.663	5.1225
670.555	5.28717
673.448	2.81708
676.341	8.57147
679.234	1.7674
682.126	3.48865
685.019	1.39154
687.912	7.21314
690.804	4.14014
693.697	3.83276
696.59	5.08752
699.482	0.484131
702.375	1.68018
705.268	3.64703
708.16	4.34869
711.053	5.03485
713.946	4.6106
716.839	3.02075
719.731	4.02502
722.624	3.25116
725.517	5.03998
728.409	2.06586
731.302	5.86554
734.195	6.31134
737.087	6.18896
739.98	0.069153
742.873	5.21466
745.766	0.945129
748.658	7.01721
751.551	5.67145
754.444	2.46338
757.336	2.42828
760.229	0.227234
763.122	2.23456
766.014	1.14349
768.907	1.55573
771.8	1.93982
774.693	0.368896
777.585	1.94855
780.478	3.02661
783.371	3.01697
786.263	1.42456
789.156	0.31311
792.049	5.16418
794.942	5.0448
797.834	3.64215
800.727	0.159485
803.62	1.52167
806.512	1.19025
809.405	3.83313
812.298	2.09644
815.19	3.17358
818.083	5.26569
820.976	3.4115
823.869	3.9967
826.761	3.73157
829.654	3.8786
832.547	5.43243
835.439	1.78644
838.332	2.82556
841.225	5.77722
844.117	3.88696
847.01	2.56055
849.903	1.97803
852.795	2.87982
855.688	3.28467
858.581	2.70227
861.474	2.76788
864.366	1.01947
867.259	4.35083
870.152	3.44891
873.044	3.64301
875.937	3.30603
878.83	4.40039
881.722	8.70294
884.615	3.49011
887.508	4.89654
890.401	0.647217
893.293	3.26978
896.186	0.22229
899.079	3.19788
901.971	2.63208
904.864	0.410217
907.757	4.43707
910.649	1.04144
913.542	3.29553
916.435	4.84094
919.328	1.84003
922.22	5.79834
925.113	7.15765
928.006	0.711243
930.898	4.98987
933.791	8.03314
936.684	2.62225
939.577	5.30695
942.469	7.29669
945.362	7.02765
948.255	8.36487
951.147	1.37329
954.04	2.76398
956.933	2.39325
959.825	3.36932
962.718	1.93268
965.611	0.819336
968.504	2.96344
971.396	0.869812
974.289	1.55689
977.182	1.22009
980.074	2.62311
982.967	2.09894
985.86	3.01556
988.752	0.607422
991.645	3.52643
994.538	4.88593
997.431	1.08954
1000.32	0.124329
1003.22	3.71143
1006.11	2.53455
1009	2.81946
1011.89	4.17816
1014.79	3.75537
1017.68	5.14734
1020.57	4.05133
1023.47	2.93939
1026.36	2.52417
1029.25	1.49561
1032.14	5.43384
1035.04	2.26514
1037.93	7.43518
1040.82	3.73334
1043.71	2.35754
1046.61	0.426392
1049.5	4.81055
1052.39	2.08667
1055.29	9.58502
1058.18	6.20599
1061.07	4.03223
1063.96	7.88788
1066.86	1.70685
1069.75	3.48822
1072.64	3.90668
1075.53	3.58283
1078.43	2.57385
1081.32	3.93835
1084.21	3.19897
1087.1	0.041077
1090	3.38068
1092.89	3.80499
1095.78	1.15161
1098.67	3.23138
1101.57	0.406677
1104.46	4.0733
1107.35	3.2359
1110.25	6.73151
1113.14	1.7005
1116.03	0.256958
1118.92	1.78351
1121.82	0.255737
1124.71	2.38556
1127.6	2.70715
1130.49	3.17133
1133.39	3.7876
1136.28	3.53064
1139.17	2.94794
1142.07	4.61487
1144.96	4.86694
1147.85	6.41418
1150.74	5.62524
1153.64	5.65088
1156.53	6.05609
1159.42	3.4881
1162.31	6.68707
1165.21	2.81555
1168.1	3.29571
1170.99	1.38373
1173.88	3.92407
1176.78	4.77093
1179.67	7.94342
1182.56	7.92194
1185.46	4.11908
1188.35	3.58874
1191.24	7.84277
1194.13	8.6831
1197.03	6.79547
1199.92	4.37763
1202.81	5.21527
1205.7	2.8349
1208.6	1.61475
1211.49	1.8913
1214.38	1.33234
1217.28	5.89575
1220.17	2.29871
1223.06	5.12775
1225.95	4.56317
1228.85	1.80542
1231.74	0.760437
1234.63	2.93799
1237.53	2.12714
1240.42	0.048279
1243.31	0.046143
1246.2	1.20416
1249.1	1.01575
1251.99	3.59155
1254.88	0.776245
1257.77	3.25781
1260.67	5.06049
1263.56	8.10278
1266.45	7.03668
1269.34	4.46503
1272.24	2.64655
1275.13	3.13654
1278.02	4.63336
1280.91	3.12555
1283.81	0.6651
