Measurement: Raman, 532 nm, unoriented, Raman Data Processed
Mineral: Cubic zirconia
Rruff sample: R110112
Ideal chemistry: ZrO_2_
Locality: Synthetic
Source: Gemological Institute of America
Description: A cut, colorless (1.95ct) gemstone, grown by melting.
Raman shift (cm-1)	intensity
162.81	342.221
165.702	458.822
168.595	579.223
171.488	655.941
174.381	709.355
177.273	790.35
180.166	844.302
183.059	910.229
185.951	941.26
188.844	932.35
191.737	899.762
194.629	887.776
197.522	906.077
200.415	920.403
203.308	936.837
206.2	935.962
209.093	931.396
211.986	926.207
214.878	923.263
217.771	928.017
220.664	938.15
223.556	940.702
226.449	943.862
229.342	954.007
232.234	956.094
235.127	960.673
238.02	959.134
240.913	963.97
243.805	967.184
246.698	965.82
249.591	969.503
252.483	977.033
255.376	981.74
258.269	983.139
261.161	982.015
264.054	983.898
266.947	982.396
269.84	984.742
272.732	987.228
275.625	988.08
278.518	989.09
281.41	985.585
284.303	979.384
287.196	976.367
290.089	976.33
292.981	976.228
295.874	975.765
298.767	978.721
301.659	978.581
304.552	977.005
307.445	980.094
310.337	976.362
313.23	978.095
316.123	971.756
319.015	958.565
321.908	946.743
324.801	928.591
327.694	915.59
330.586	899.114
333.479	879.473
336.372	867.518
339.264	859.032
342.157	850.563
345.05	838.127
347.942	833.753
350.835	830.642
353.728	831.571
356.621	830.151
359.513	829.058
362.406	832.322
365.299	830.505
368.191	832.392
371.084	834.6
373.977	830.048
376.87	829.499
379.762	830.952
382.655	820.399
385.548	818.531
388.44	810.599
391.333	802.937
394.226	795.763
397.118	791.744
400.011	784.877
402.904	780.471
405.796	774.336
408.689	770.611
411.582	770.105
414.475	771.459
417.367	763.689
420.26	756.778
423.153	753.169
426.045	749.745
428.938	747.356
431.831	743.069
434.724	734.377
437.616	732.451
440.509	724.605
443.402	723.997
446.294	720.772
449.187	718.143
452.08	714.309
454.972	711.082
457.865	708.511
460.758	713.409
463.651	708.741
466.543	710.061
469.436	707.278
472.329	709.732
475.221	708.811
478.114	704.802
481.007	703.231
483.899	702.085
486.792	695.374
489.685	695.919
492.577	695.015
495.47	697.19
498.363	708.393
501.256	705.728
504.148	708.497
507.041	714.376
509.934	719.527
512.826	727.178
515.719	732.25
518.612	735.788
521.505	743.694
524.397	752.984
527.29	761.568
530.183	770.956
533.075	778.507
535.968	785.58
538.861	790.874
541.753	806.449
544.646	812.632
547.539	822.445
550.432	826.625
553.324	833.278
556.217	840.985
559.11	847.257
562.002	849.185
564.895	853.576
567.788	859.273
570.68	866.6
573.573	873.864
576.466	882.301
579.359	891.159
582.251	900.711
585.144	903.668
588.037	912.198
590.929	918.82
593.822	926.645
596.715	927.538
599.607	926.423
602.5	922.692
605.393	909.92
608.285	895.388
611.178	867.876
614.071	842.601
616.964	802.632
619.856	765.891
622.749	715.215
625.642	664.798
628.534	617.101
631.427	575.72
634.32	532.119
637.212	498.107
640.105	463.112
642.998	434.925
645.891	414.099
648.783	398.538
651.676	384.988
654.569	375.037
657.461	366.635
660.354	357.488
663.247	351.547
666.139	348.141
669.032	342.721
671.925	339.226
674.818	335.828
677.71	331.696
680.603	327.838
683.496	327.75
686.388	320.891
689.281	318.255
692.174	308.527
695.067	305.964
697.959	300.385
700.852	292.76
703.745	285.16
706.637	279.228
709.53	276.131
712.423	266.8
715.315	257.509
718.208	251.297
721.101	246.626
723.994	240.34
726.886	234.108
729.779	229.431
732.672	225.876
735.564	219.001
738.457	213.92
741.35	207.345
744.242	203.422
747.135	197.769
750.028	194.746
752.92	192.694
755.813	186.031
758.706	181.475
761.599	180.513
764.491	176.036
767.384	172.184
770.277	170.604
773.169	166.792
776.062	166.965
778.955	163.461
781.847	158.905
784.74	157.095
787.633	157.887
790.526	156.721
793.418	154.734
796.311	154.462
799.204	148.945
802.096	150.085
804.989	147.248
807.882	147.465
810.774	146.703
813.667	146.002
816.56	146.937
819.453	146.296
822.345	145.966
825.238	144.665
828.131	144.221
831.023	148.165
833.916	144.693
836.809	147.372
839.702	147.228
842.594	147.028
845.487	144.911
848.38	145.474
851.272	145.541
854.165	146.715
857.058	147.421
859.95	145.432
862.843	147.811
865.736	146.299
868.629	145.944
871.521	147.111
874.414	147.653
877.307	149.259
880.199	146.821
883.092	146.01
885.985	147.334
888.877	147.842
891.77	147.526
894.663	147.275
897.556	148.14
900.448	148.479
903.341	148.126
906.234	149.33
909.126	148.773
912.019	148.802
914.912	148.522
917.804	148.782
920.697	150.953
923.59	150.262
926.482	150.644
929.375	152.366
932.268	150.758
935.161	151.254
938.053	148.49
940.946	148.899
943.839	150.344
946.731	149.273
949.624	150.666
952.517	149.756
955.409	149.446
958.302	150.155
961.195	151.444
964.088	148.977
966.98	149.841
969.873	149.816
972.766	149.072
975.658	149.024
978.551	148.849
981.444	147.619
984.337	147.093
987.229	145.647
990.122	143.355
993.015	144.348
995.907	141.371
998.8	137.942
1001.69	138.324
1004.59	136.944
1007.48	135.665
1010.37	133.888
1013.26	131.069
1016.16	130.267
1019.05	127.147
1021.94	125.914
1024.83	124.415
1027.73	120.128
1030.62	121.755
1033.51	120.401
1036.4	117.918
1039.3	117.649
1042.19	114.166
1045.08	111.985
1047.98	111.216
1050.87	109.56
1053.76	110.737
1056.65	107.707
1059.55	105.626
1062.44	102.387
1065.33	102.321
1068.22	100.174
1071.12	98.6708
1074.01	97.4717
1076.9	94.3237
1079.8	91.8346
1082.69	94.6543
1085.58	90.5262
1088.47	88.8384
1091.37	87.2061
1094.26	86.9586
1097.15	86.4707
1100.04	82.6325
1102.94	82.3319
1105.83	82.247
1108.72	79.7525
1111.62	79.5644
1114.51	77.4127
1117.4	74.7147
1120.29	73.5541
1123.19	71.7141
1126.08	72.2007
1128.97	69.9091
1131.86	67.1124
1134.76	67.8246
1137.65	66.7097
1140.54	64.7049
1143.43	64.4464
1146.33	64.5028
1149.22	63.5955
1152.11	61.2808
1155.01	59.9832
1157.9	58.7084
1160.79	59.263
1163.68	59.4006
1166.58	57.7236
1169.47	57.4787
1172.36	57.0468
1175.26	56.8827
1178.15	54.7721
1181.04	54.8444
1183.93	54.9792
1186.83	54.6065
1189.72	52.439
1192.61	51.292
1195.5	52.8266
1198.4	51.7111
1201.29	51.7269
1204.18	51.7819
1207.07	49.6463
1209.97	52.1219
1212.86	50.8026
1215.75	50.208
1218.64	50.0791
1221.54	50.489
1224.43	49.9507
1227.32	49.3041
1230.22	49.7031
1233.11	49.7265
1236	48.9486
1238.89	47.7512
1241.79	48.2916
1244.68	47.7128
1247.57	48.1097
1250.46	48.061
1253.36	47.8317
1256.25	47.9719
1259.14	47.3476
1262.04	48.6255
1264.93	48.2619
1267.82	47.8115
1270.71	45.9812
1273.61	48.3997
1276.5	47.0213
1279.39	49.5569
1282.29	48.5026
1285.18	49.1018
1288.07	48.3308
1290.96	48.9514
1293.86	48.7169
1296.75	47.9459
1299.64	49.2249
1302.53	49.1256
