Measurement: Raman, 780 nm, unoriented, Raman Data Processed
Mineral: Cubic zirconia
Rruff sample: R110112
Ideal chemistry: ZrO_2_
Locality: Synthetic
Source: Gemological Institute of America
Description: A cut, colorless (1.95ct) gemstone, grown by melting.
Raman shift (cm-1)	intensity
212.615	192.102
215.507	197.001
218.4	198.102
221.293	200.643
224.186	204.855
227.078	201.887
229.971	207.582
232.864	204.012
235.756	205.919
238.649	208.069
241.542	206.748
244.435	207.494
247.327	210.769
250.22	208.603
253.113	210.851
256.005	205.841
258.898	212.606
261.791	213.406
264.683	210.454
267.576	211.568
270.469	212.989
273.361	214.498
276.254	213.465
279.147	211.65
282.04	216.56
284.932	216.336
287.825	221.447
290.718	222.909
293.61	228.668
296.503	231.226
299.396	235.904
302.288	241.48
305.181	243.96
308.074	249.281
310.967	253.794
313.859	257.85
316.752	264.598
319.645	266.658
322.537	269.391
325.43	269.8
328.323	275.614
331.216	271.018
334.108	267.989
337.001	266.087
339.894	259.038
342.786	257.776
345.679	251.379
348.572	252.452
351.464	253.949
354.357	253.217
357.25	254.212
360.142	253.201
363.035	255.329
365.928	259.744
368.821	262.275
371.713	269.484
374.606	275.455
377.499	283.072
380.391	290.086
383.284	304.618
386.177	311
389.07	326.008
391.962	336.506
394.855	345.636
397.748	358.708
400.64	371.613
403.533	382.088
406.426	394.016
409.318	399.88
412.211	412.265
415.104	421.735
417.997	430.346
420.889	440.649
423.782	447.307
426.675	450.017
429.567	457.29
432.46	464.985
435.353	471.854
438.245	480.311
441.138	493.675
444.031	509.749
446.923	540.126
449.816	564.552
452.709	607.353
455.602	647.295
458.494	684.735
461.387	731.809
464.28	764.987
467.172	778.498
470.065	784.679
472.958	781.327
475.851	753.541
478.743	719.755
481.636	679.211
484.529	635.03
487.421	594.621
490.314	560.528
493.207	524.708
496.099	503.161
498.992	485.365
501.885	469.348
504.777	458.087
507.67	449.463
510.563	450.931
513.456	449.601
516.348	448.107
519.241	454.923
522.134	457.311
525.026	460.308
527.919	464.3
530.812	468.438
533.705	468.849
536.597	470.569
539.49	465.804
542.383	460.714
545.275	455.276
548.168	446.448
551.061	435.433
553.953	420.424
556.846	412.937
559.739	401.652
562.631	392.594
565.524	382.453
568.417	374.252
571.31	364.423
574.202	358.048
577.095	351.378
579.988	342.113
582.88	341.115
585.773	346.041
588.666	345.723
591.558	344.116
594.451	345.714
597.344	352.032
600.237	354.721
603.129	362.753
606.022	366.238
608.915	372.433
611.807	373.601
614.7	372.002
617.593	370.408
620.486	367.916
623.378	359.741
626.271	360.345
629.164	353.287
632.056	351.797
634.949	354.427
637.842	350.955
640.734	349.086
643.627	351.721
646.52	353.537
649.413	359.16
652.305	364.045
655.198	370.686
658.091	373.605
660.983	375.945
663.876	379.472
666.769	377.622
669.661	379.818
672.554	380.482
675.447	375.912
678.34	371.899
681.232	365.235
684.125	361.199
687.018	352.717
689.91	343.892
692.803	337.886
695.696	327.601
698.588	320.768
701.481	306.336
704.374	305.032
707.266	294.307
710.159	286.862
713.052	281.404
715.945	273.387
718.837	268.277
721.73	262.08
724.623	256.533
727.515	251.944
730.408	247.319
733.301	246.266
736.193	240.903
739.086	234.064
741.979	233.194
744.872	231.973
747.764	230.215
750.657	225.059
753.55	227.874
756.442	221.938
759.335	220.683
762.228	222.566
765.12	223.774
768.013	221.215
770.906	219.638
773.799	219.048
776.691	221.354
779.584	219.772
782.477	219.023
785.369	219.96
788.262	217.362
791.155	220.059
794.048	218.483
796.94	216.198
799.833	214.847
802.726	213.567
805.618	212.282
808.511	214.364
811.404	213.242
814.296	210.928
817.189	207.88
820.082	207.068
822.975	205.54
825.867	203.27
828.76	198.652
831.653	197.935
834.545	194.68
837.438	196.455
840.331	193.565
843.223	190.915
846.116	190.584
849.009	187.823
851.902	186.563
854.794	184.036
857.687	183.569
860.58	183.739
863.472	183.111
866.365	184.134
869.258	179.377
872.15	182.543
875.043	180.694
877.936	180.873
880.829	178.507
883.721	181.202
886.614	182.866
889.507	178.22
892.399	180.44
895.292	180.592
898.185	180.417
901.077	182.348
903.97	181.189
906.863	184.549
909.756	182.944
912.648	186.484
915.541	186.01
918.434	188.57
921.326	189.479
924.219	189.779
927.112	193.551
930.005	194.11
932.897	194.745
935.79	199.856
938.683	198.845
941.575	199.536
944.468	200.927
947.361	201.644
950.253	205.559
953.146	203.549
956.039	208.634
958.932	210.545
961.824	211.423
964.717	216.123
967.61	220.545
970.502	221.898
973.395	223.356
976.288	226.498
979.18	228.091
982.073	236.968
984.966	233.477
987.859	238.279
990.751	242.215
993.644	247.158
996.537	250.676
999.429	252.532
1002.32	255.582
1005.22	261.156
1008.11	263.838
1011	266.673
1013.89	274.359
1016.78	278.515
1019.68	279.883
1022.57	284.636
1025.46	288.913
1028.36	291.776
1031.25	298.722
1034.14	301.43
1037.03	306.957
1039.93	314.059
1042.82	312.409
1045.71	318.77
1048.61	327.613
1051.5	326.781
1054.39	335.735
1057.28	338.236
1060.18	344.808
1063.07	348.309
1065.96	354.626
1068.85	356.96
1071.75	369.81
1074.64	370.279
1077.53	372.975
1080.42	381.12
1083.32	384.06
1086.21	391.487
1089.1	403.784
1092	407.251
1094.89	419.056
1097.78	420.737
1100.67	429.814
1103.57	438.569
1106.46	439.559
1109.35	457.029
1112.24	458.151
1115.14	462.625
1118.03	472.905
1120.92	484.989
1123.82	490.032
1126.71	505.236
1129.6	513.143
1132.49	517.166
1135.39	530.193
1138.28	542.278
1141.17	554.321
1144.06	556.834
1146.96	569.856
1149.85	578.735
1152.74	582.6
1155.63	592.989
1158.53	609.505
1161.42	623.329
1164.31	629.157
1167.21	644.951
1170.1	657.399
1172.99	668.499
1175.88	678.356
1178.78	688.582
1181.67	703.167
1184.56	711.274
1187.45	735.378
1190.35	747.162
1193.24	761.47
1196.13	777.748
1199.03	796.331
1201.92	816.527
1204.81	845.852
1207.7	856.436
1210.6	886.025
1213.49	915.174
1216.38	941.814
1219.27	968.331
1222.17	1005.35
1225.06	1064.09
1227.95	1110.61
1230.85	1134.46
1233.74	1193.89
1236.63	1242.99
1239.52	1307.36
1242.42	1365.79
1245.31	1447.59
1248.2	1527.68
1251.09	1617.72
1253.99	1701.58
1256.88	1812.31
1259.77	1916.91
1262.66	2025.33
1265.56	2177.88
1268.45	2278.79
1271.34	2394.24
1274.24	2540.95
1277.13	2669.71
1280.02	2810.24
1282.91	2971.38
