Measurement: Raman, 785 nm, unoriented, Raman Data Processed
Mineral: Cuproiridsite
Rruff sample: R070035
Ideal chemistry: Cu^2+^Ir^3+^_2_S^2-^_4_
Locality: Miass River, Urals, Russia
Source: Michael Scott
Description: Iron-black metallic polished fragment embedded in epoxy
Measured chemistry: gray inclusion in the dark phase: (Cu_0.67_Ni_0.17_Fe_0.16_)_Σ=1_(Ir_1.94_Pt_0.04_Ru_0.02_)_Σ=2_S_4.00_ trace amounts of Os.
Raman shift (cm-1)	intensity
138.184	0
141.077	222.33
143.969	789.231
146.862	1196.7
149.755	1081.93
152.647	660.988
155.54	567.725
158.433	503.84
161.325	426.076
164.218	381.12
167.111	293.949
170.004	191.781
172.896	129.499
175.789	74.0512
178.682	22.676
181.574	26.4841
184.467	12.3772
187.36	28.4578
190.252	40.8986
193.145	21.4038
196.038	15.2513
198.93	9.0401
201.823	28.1853
204.716	60.6832
207.609	59.0071
210.501	80.577
213.394	106.43
216.287	150.198
219.179	150.746
222.072	170.502
224.965	187.86
227.857	152.245
230.75	184.669
233.643	166.299
236.536	168.176
239.428	167.124
242.321	182.966
245.214	176.148
248.106	167.076
250.999	170.319
253.892	145.945
256.784	121.319
259.677	117.371
262.57	104.472
265.463	103.738
268.355	118.457
271.248	101.128
274.141	103.132
277.033	84.6368
279.926	58.3188
282.819	78.5365
285.712	53.8303
288.604	51.4933
291.497	57.7144
294.39	41.7894
297.282	57.121
300.175	59.4832
303.068	49.1784
305.96	53.8595
308.853	65.7225
311.746	41.0315
314.639	44.3541
317.531	16.5186
320.424	16.2584
323.317	22.187
326.209	28.1498
329.102	24.3221
331.995	20.9154
334.887	24.9852
337.78	7.96817
340.673	0.401733
343.566	34.3201
346.458	20.5462
349.351	9.71286
352.244	2.44388
355.136	15.1611
358.029	9.65723
360.922	11.5588
363.815	13.5215
366.707	5.30093
369.6	10.1106
372.493	0.401367
375.385	13.34
378.278	20.2712
381.171	10.2204
384.063	10.4493
386.956	16.2877
389.849	10.6229
392.741	5.29742
395.634	1.7652
398.527	4.89734
401.42	6.99402
404.312	4.02475
407.205	25.3727
410.098	9.99402
412.99	19.4864
415.883	27.6065
418.776	17.5142
421.668	35.7627
424.561	13.0104
427.454	18.3792
430.347	19.2227
433.239	18.1855
436.132	12.776
439.025	8.10553
441.917	8.71423
444.81	26.6735
447.703	21.4253
450.596	16.587
453.488	10.5092
456.381	27.4352
459.274	12.0129
462.166	3.07623
465.059	10.9405
467.952	18.007
470.844	2.05023
473.737	4.37244
476.63	1.26761
479.522	26.2707
482.415	11.9944
485.308	13.6448
488.201	7.27963
491.093	21.7687
493.986	13.9043
496.879	21.8186
499.771	20.5916
502.664	6.496
505.557	21.3269
508.45	18.8243
511.342	20.6742
514.235	19.9885
517.128	1.38522
520.02	17.3649
522.913	6.22201
525.806	17.2568
528.698	9.88397
531.591	19.4597
534.484	15.1339
537.376	4.36105
540.269	10.7555
543.162	12.5839
546.055	12.1956
548.947	21.8755
551.84	4.32037
554.733	7.80106
557.625	11.439
560.518	9.68045
563.411	19.5104
566.303	5.78342
569.196	18.0472
572.089	12.5647
574.982	1.87836
577.874	3.60565
580.767	2.2811
583.66	13.863
586.552	25.4561
589.445	7.89285
592.338	21.9229
595.231	18.1292
598.123	0.28717
601.016	14.1496
603.909	13.182
606.801	8.043
609.694	14.1075
612.587	5.18881
615.479	13.7393
618.372	8.77744
621.265	2.08447
624.158	12.0866
627.05	24.8613
629.943	12.5331
632.836	20.5576
635.728	6.17337
638.621	7.06891
641.514	2.31113
644.406	0.579254
647.299	10.0615
650.192	11.5207
653.085	9.23508
655.977	21.3414
658.87	18.0655
661.763	2.34103
664.655	15.3315
667.548	24.1471
670.441	2.38324
673.333	10.9806
676.226	1.97382
679.119	11.3864
682.012	2.32089
684.904	19.4428
687.797	18.438
690.69	11.7724
693.582	7.15765
696.475	14.8058
699.368	29.6571
702.26	18.9783
705.153	7.00793
708.046	17.5193
710.939	17.2741
713.831	10.8669
716.724	21.1814
719.617	17.2333
722.509	5.26328
725.402	13.1901
728.295	10.467
731.188	10.4322
734.08	29.6513
736.973	8.71906
739.866	3.26092
742.758	6.64343
745.651	26.6777
748.544	2.80603
751.436	28.2053
754.329	8.42127
757.222	17.2427
760.115	13.2001
763.007	1.20349
765.9	21.9521
768.793	13.6954
771.685	24.1401
774.578	13.98
777.471	15.0075
780.363	6.52399
783.256	18.529
786.149	15.0869
789.042	8.36896
791.934	3.71634
794.827	10.8371
797.72	19.9065
800.612	15.9767
803.505	3.24933
806.398	12.5569
809.29	15.9543
812.183	7.73355
815.076	10.3039
817.968	12.5913
820.861	17.8243
823.754	27.832
826.647	10.8265
829.539	4.71478
832.432	20.5816
835.325	3.06387
838.217	15.3084
841.11	2.68878
844.003	21.6471
846.895	12.4265
849.788	10.9
852.681	13.0432
855.574	29.2367
858.466	11.7439
861.359	7.0347
864.252	4.17233
867.144	5.70123
870.037	12.9197
872.93	12.5789
875.822	3.39856
878.715	28.3609
881.608	7.13742
884.501	24.0637
887.393	13.2097
890.286	13.935
893.179	21.6848
896.071	9.29828
898.964	18.5196
901.857	13.8627
904.75	1.5965
907.642	1.21317
910.535	15.4334
913.428	17.3453
916.32	11.1291
919.213	14.4511
922.106	6.43661
924.999	14.9561
927.891	19.2313
930.784	15.0065
933.677	12.4777
936.569	8.47662
939.462	15.9509
942.355	1.74206
945.247	11.8154
948.14	15.9841
951.033	1.42151
953.926	10.7639
956.818	15.8252
959.711	27.5243
962.604	17.6352
965.496	16.77
968.389	12.1122
971.282	2.90723
974.174	21.6929
977.067	1.69675
979.96	18.0083
982.852	9.86499
985.745	15.2459
988.638	11.9362
991.531	12.4542
994.423	12.6958
997.316	9.58108
1000.21	9.30704
1003.1	13.8114
1005.99	11.8572
1008.89	27.3032
1011.78	18.6116
1014.67	28.2977
1017.57	6.04709
1020.46	2.48996
1023.35	23.9361
1026.24	13.0593
1029.14	2.26947
1032.03	22.14
1034.92	15.191
1037.81	14.2923
1040.71	16.7283
1043.6	7.96201
1046.49	30.6818
1049.38	17.1165
1052.28	31.2879
1055.17	2.24127
1058.06	10.6362
1060.95	17.6263
1063.85	11.6913
1066.74	10.0623
1069.63	18.6394
1072.53	18.8985
1075.42	17.1855
1078.31	12.4332
1081.2	3.30728
1084.1	13.7336
1086.99	10.2125
1089.88	9.63019
1092.78	7.89697
1095.67	12.7733
1098.56	10.3603
1101.45	10.8057
1104.35	13.2477
1107.24	2.01019
1110.13	18.279
1113.02	15.9756
1115.92	5.89075
1118.81	29.5947
1121.7	1.81299
1124.6	10.1032
1127.49	14.1488
1130.38	16.8142
1133.27	31.5579
1136.17	11.8007
1139.06	28.8072
1141.95	0.31427
1144.84	17.9278
1147.74	4.0625
1150.63	12.1541
1153.52	17.0713
1156.41	5.82477
1159.31	28.3961
1162.2	13.4608
1165.09	0.36618
1167.98	20.2585
1170.88	33.3549
1173.77	9.65479
1176.66	26.3779
1179.56	8.96814
1182.45	23.6582
1185.34	33.4094
1188.23	18.8705
1191.13	31.2664
1194.02	9.63486
1196.91	14.6186
1199.81	22.5408
1202.7	4.44492
1205.59	22.8055
1208.48	14.5
1211.38	16.3415
1214.27	8.48846
1217.16	16.9981
1220.05	15.9242
1222.95	5.99026
1225.84	10.9913
1228.73	18.4889
1231.62	3.73169
1234.52	13.0599
1237.41	13.1055
1240.3	34.5521
1243.2	7.65875
