Measurement: Raman, 532 nm, unoriented, Raman Data Processed
Mineral: Cuproiridsite
Rruff sample: R070035
Ideal chemistry: Cu^2+^Ir^3+^_2_S^2-^_4_
Locality: Miass River, Urals, Russia
Source: Michael Scott
Description: Iron-black metallic polished fragment embedded in epoxy
Measured chemistry: gray inclusion in the dark phase: (Cu_0.67_Ni_0.17_Fe_0.16_)_Σ=1_(Ir_1.94_Pt_0.04_Ru_0.02_)_Σ=2_S_4.00_ trace amounts of Os.
Raman shift (cm-1)	intensity
118.362	0
121.737	8.84326
125.112	61.4766
128.487	854.156
131.862	2658.16
135.237	4385.54
138.611	5857.42
141.986	6752.08
145.361	6782.88
148.736	6654.39
152.111	7455.71
155.486	8535.9
158.86	8932.36
162.235	8661.19
165.61	8342.3
168.985	8031.65
172.359	8146.9
175.734	8079.57
179.109	7550.67
182.484	7023.51
185.859	6661.6
189.234	6081.97
192.608	5660.23
195.983	5591.03
199.358	5011.44
202.733	4676.15
206.108	4149.22
209.482	3946.26
212.857	3476.63
216.232	3256.41
219.607	2963.8
222.982	2541.56
226.357	2279.12
229.731	1940.45
233.106	1739.46
236.481	1458.11
239.856	1449.55
243.231	1061.66
246.605	1096.93
249.98	761.144
253.355	834.008
256.73	463.164
260.105	410.367
263.479	234.766
266.854	17.6562
270.229	171.629
273.604	18.8711
276.979	84.3242
280.353	123.988
283.728	24.4648
287.103	65.0391
290.478	79.9219
293.853	34.0195
297.228	164.973
300.602	129.301
303.977	0.167969
307.352	0.929688
310.727	30.8516
314.102	32.875
317.476	123.578
320.851	130.633
324.226	294.344
327.601	65.4141
330.976	361.32
334.351	60.3203
337.725	121.484
341.1	312.102
344.475	185.352
347.85	332.445
351.225	336.953
354.599	330.344
357.974	386.266
361.349	202.445
364.724	505.516
368.099	220.5
371.474	373.094
374.848	361.648
378.223	476.984
381.598	452.578
384.973	435.898
388.348	489.062
391.722	407.258
395.097	491.07
398.472	318.578
401.847	628.008
405.222	308.656
408.596	343.008
411.971	280.258
415.346	304.648
418.721	267.164
422.096	166.117
425.471	461.047
428.845	224.422
432.22	433.5
435.595	459.406
438.97	302.031
442.344	381.352
445.719	429.344
449.094	291.023
452.469	365.484
455.844	576.336
459.219	226.344
462.593	456.195
465.968	509.484
469.343	184.414
472.718	267.148
476.093	220.727
479.467	525.43
482.842	101.68
486.217	157.586
489.592	328.805
492.967	97.4531
496.342	132.273
499.716	102.766
503.091	304.891
506.466	21.8203
509.841	81.0625
513.216	409.078
516.591	197.602
519.965	40.2188
523.34	39.7422
526.715	160.594
530.09	134.961
533.465	37.5469
536.839	334.562
540.214	144.414
543.589	145.797
546.964	58.9609
550.339	250.633
553.713	53.6016
557.088	5.375
560.463	319.078
563.838	200.82
567.213	113.109
570.587	55.6016
573.962	334.133
577.337	243.031
580.712	37.125
584.087	281.555
587.462	179.016
590.836	138.734
594.211	274.188
597.586	196.859
600.961	309.969
604.336	254.133
607.71	302.102
611.085	406.883
614.46	260.031
617.835	514.688
621.21	502.773
624.584	431.008
627.959	665.359
631.334	477.062
634.709	702.523
638.084	946.375
641.458	862.547
644.833	967.844
648.208	808.586
651.583	1067.55
654.958	945.211
658.333	1011.95
661.707	1017.41
665.082	770.141
668.457	752.477
671.832	759.703
675.207	602.344
678.581	393.031
681.956	544.672
685.331	540.008
688.706	391.25
692.081	132.688
695.456	146.328
698.83	427.203
702.205	190.68
705.58	226.391
708.955	309.953
712.33	64.5703
715.704	385.773
719.079	249
722.454	53.9844
725.829	24.5234
729.204	560.844
732.578	7.58594
735.953	158.352
739.328	39.6719
742.703	314.281
746.078	75.5469
749.452	154.023
752.827	365.852
756.202	461.344
759.577	269.078
762.952	61.3984
766.327	66.5938
769.701	31.9844
773.076	176.438
776.451	241.414
779.826	60.4297
783.201	112.445
786.575	241.906
789.95	451.148
793.325	134.156
796.7	242.539
800.075	56.3281
803.449	261.07
806.824	214.805
810.199	166.172
813.574	412.5
816.949	342.656
820.323	143.18
823.698	518.688
827.073	48.5078
830.448	135.25
833.823	273.375
837.198	474.445
840.572	5.22656
843.947	198.891
847.322	484.594
850.697	231.93
854.072	13.5469
857.447	93.1562
860.821	238.766
864.196	305.375
867.571	345.406
870.946	552.344
874.321	34.3047
877.695	251.336
881.07	112.68
884.445	261.047
887.82	434.688
891.195	153.273
894.569	69.4922
897.944	73.0625
901.319	16.8438
904.694	432.406
908.069	1.75781
911.443	96.3359
914.818	75.5938
918.193	243.688
921.568	95.3828
924.943	300.727
928.318	443.977
931.692	342.875
935.067	369.648
938.442	149.055
941.817	234.609
945.192	128.477
948.567	220.289
951.941	207.492
955.316	203.797
958.691	482.719
962.066	277.852
965.441	51.2109
968.815	100.711
972.19	328.125
975.565	97.3359
978.94	93.3828
982.315	226.008
985.689	295.977
989.064	12.1016
992.439	274.734
995.814	201.094
999.189	5.04688
1002.56	24.8359
1005.94	88.8281
1009.31	207.141
1012.69	3.35156
1016.06	55.0625
1019.44	425.945
1022.81	244.18
1026.19	143.062
1029.56	183.523
1032.94	182.508
1036.31	150
1039.69	129.609
1043.06	94.3359
1046.44	180.234
1049.81	31.5391
1053.19	182.891
1056.56	149.102
1059.93	216.758
1063.31	249.477
1066.68	183.062
1070.06	306.641
1073.43	196.023
1076.81	349.258
1080.18	154.672
1083.56	197.094
1086.93	321.898
1090.31	311.102
1093.68	236.383
1097.06	129.195
1100.43	109.312
1103.81	60.1797
1107.18	170.781
1110.56	211.555
1113.93	227.633
1117.31	140.188
1120.68	250.062
1124.06	264.992
1127.43	226.844
1130.81	198.773
1134.18	267.953
1137.56	70.3281
1140.93	171.406
1144.31	379.664
1147.68	652.836
1151.06	331.656
1154.43	183.453
1157.81	150.688
1161.18	114.555
1164.55	96.3516
1167.93	401.703
1171.3	214.797
1174.68	215.812
1178.05	108.867
1181.43	165.992
1184.8	159.078
1188.18	163.461
1191.55	219
1194.93	416.609
1198.3	51.1172
1201.68	121.148
1205.05	225.523
1208.43	215.75
1211.8	191.984
1215.18	130.828
1218.55	104.391
1221.93	21.5234
1225.3	181.398
1228.68	142.953
1232.05	5.78906
1235.43	79.7344
1238.8	21.8125
1242.17	18.1562
1245.55	114.227
1248.92	79.5312
1252.3	52.0938
1255.67	196.617
1259.05	136.273
1262.42	102.109
1265.8	89.2422
1269.17	173.914
1272.55	164.422
1275.92	38.1094
1279.3	117.516
1282.67	99.4453
1286.05	201.977
1289.42	202.906
1292.8	54.7891
1296.17	214.656
1299.55	46.0781
1302.92	70.5859
