Measurement: Raman, 780 nm, unoriented, Raman Data Processed
Mineral: Cuprite
Rruff sample: R050374
Ideal chemistry: Cu^1+^_2_O
Locality: unknown
Source: Eugene Schlepp
Description: Aggregate of deep red cubes
Measured chemistry: Cu_2.00_O
Raman shift (cm-1)	intensity
121.45	0
124.825	2.38477
128.2	15.9395
131.575	96.7978
134.95	111.434
138.325	212.186
141.699	237.791
145.074	336.255
148.449	345.688
151.824	343.538
155.199	264.089
158.573	181.629
161.948	168.639
165.323	170.195
168.698	231.915
172.073	290.596
175.447	326.634
178.822	440.67
182.197	420.876
185.572	408.8
188.947	399.018
192.322	334.773
195.696	303.33
199.071	319.266
202.446	251.129
205.821	251.318
209.196	286.93
212.571	323.69
215.945	321.631
219.32	248.758
222.695	187.154
226.07	123.07
229.445	110.484
232.819	76.9629
236.194	3.95508
239.569	10.1914
242.944	19.3047
246.319	44.166
249.694	40.6855
253.068	11.1836
256.443	0.148438
259.818	7.26367
263.193	68.8223
266.567	8.99023
269.942	41.752
273.317	11.2109
276.692	0.863281
280.067	9.87695
283.442	92.1113
286.816	52.0195
290.191	70.1309
293.566	41.0117
296.941	53.7285
300.316	28.1172
303.69	63.8457
307.065	22.5
310.44	1.42969
313.815	2.24414
317.19	96.9512
320.565	83.2812
323.939	48.9805
327.314	20.3555
330.689	48.6504
334.064	6.33398
337.439	33.5586
340.813	52.9219
344.188	40.4297
347.563	47
350.938	86.959
354.313	23.5273
357.688	96.2246
361.062	45.2949
364.437	14.4062
367.812	53.9512
371.187	92.0449
374.562	35.9277
377.937	29.834
381.311	2.95312
384.686	7.32812
388.061	13.7949
391.436	53.6855
394.81	27.3613
398.185	63.6895
401.56	24.6133
404.935	65.2988
408.31	28.998
411.685	96.4375
415.059	61.2891
418.434	56.5156
421.809	169.998
425.184	105.574
428.559	102.769
431.933	113.838
435.308	99.4453
438.683	112.828
442.058	53.4297
445.433	113.727
448.808	60.6953
452.182	71.2793
455.557	77.5938
458.932	108.213
462.307	138.443
465.682	164.584
469.057	174.264
472.431	166.881
475.806	195.156
479.181	133.738
482.556	138.481
485.931	181.068
489.305	131.773
492.68	153.117
496.055	126.336
499.43	115.441
502.805	100.539
506.18	124.037
509.554	101.721
512.929	113.639
516.304	96.084
519.679	100.586
523.054	50.3789
526.428	30.8105
529.803	56.2891
533.178	44.1348
536.553	70.7754
539.928	0.431641
543.303	31.5898
546.677	25.5977
550.052	31.4277
553.427	11.9863
556.802	42.8887
560.177	29.8184
563.551	10.0898
566.926	50.4551
570.301	80.1738
573.676	18.5859
577.051	12.6719
580.426	64.1875
583.8	57.5586
587.175	113.727
590.55	90.0957
593.925	80.25
597.299	64.4961
600.674	68.082
604.049	80.043
607.424	38.8984
610.799	21.9668
614.174	86.0566
617.548	87.5664
620.923	141.184
624.298	151.6
627.673	156.494
631.048	113.391
634.423	138.144
637.797	112.977
641.172	138.898
644.547	102.545
647.922	115.295
651.297	73.6016
654.671	45.3457
658.046	7.10156
661.421	48.8926
664.796	45.8184
668.171	62.709
671.545	28.2441
674.92	32.2773
678.295	22.7695
681.67	83.8672
685.045	72.0859
688.42	39.5781
691.794	16.3359
695.169	57.6641
698.544	36.3086
701.919	44.7578
705.294	29.9902
708.668	32.8496
712.043	98.5098
715.418	105.584
718.793	62.209
722.168	14.6191
725.543	29.5293
728.917	13.6641
732.292	59.1758
735.667	38.8809
739.042	27.6738
742.417	17.752
745.791	95.293
749.166	91.8301
752.541	0.625
755.916	41.7285
759.291	23.8477
762.665	23.0801
766.04	33.918
769.415	17.2832
772.79	62.2832
776.165	54.2812
779.54	47.5625
782.914	13.1426
786.289	66.9629
789.664	40.998
793.039	60.4727
796.414	112.397
799.788	66.6934
803.163	50.5273
806.538	106.096
809.913	132.613
813.288	141.459
816.663	96.1641
820.037	118.709
823.412	52.1699
826.787	77.5762
830.162	90.6367
833.537	133.481
836.912	97.3242
840.286	128.576
843.661	104.928
847.036	85.7773
850.411	46.0586
853.786	36.1504
857.16	61.7246
860.535	33.5859
863.91	125.33
867.285	99.1816
870.66	103.416
874.034	2.27148
877.409	72.2754
880.784	6.73047
884.159	80.5449
887.534	10.5879
890.909	28.8086
894.283	0.634766
897.658	70.1641
901.033	50.6953
904.408	2.5625
907.783	21.6113
911.158	44.4141
914.532	11.5547
917.907	40.2051
921.282	4.08789
924.657	113.148
928.032	36.7207
931.406	101.99
934.781	63.2383
938.156	9.66797
941.531	71.7598
944.906	75.6816
948.28	57.6836
951.655	87.2129
955.03	61.875
958.405	60.9922
961.78	95.1328
965.154	54.1406
968.529	52.1934
971.904	64.3887
975.279	64.5039
978.654	34.1133
982.029	14.8613
985.403	16.082
988.778	69.2832
992.153	26.4473
995.528	123.371
998.903	111.18
1002.28	89.6953
1005.65	93.3008
1009.03	73.8379
1012.4	88.9316
1015.78	78.8809
1019.15	100.6
1022.53	110.562
1025.9	103.879
1029.28	126.613
1032.65	122.486
1036.03	154.447
1039.4	103.373
1042.78	103.926
1046.15	126.191
1049.53	180.49
1052.9	129.842
1056.28	142.315
1059.65	59.123
1063.02	166.07
1066.4	164.25
1069.77	124.518
1073.15	126.342
1076.52	157.748
1079.9	150.871
1083.27	119.897
1086.65	56.6641
1090.02	103.436
1093.4	126.799
1096.77	102.166
1100.15	81.418
1103.52	34.6836
1106.9	37.1113
1110.27	4.07617
1113.65	11.8945
1117.02	64.5996
1120.4	28.5312
1123.77	92.5254
1127.15	29.3047
1130.52	38.125
1133.89	17.9844
1137.27	3.28711
1140.64	51.0781
1144.02	4.00781
1147.39	7.21094
1150.77	85.3809
1154.14	77.6289
1157.52	96.2129
1160.89	122.234
1164.27	89.5898
1167.64	120.353
1171.02	89.3086
1174.39	141.184
1177.77	161.576
1181.14	131.617
1184.52	159.783
1187.89	154.717
1191.27	115.42
1194.64	126.58
1198.02	122.023
1201.39	155.394
1204.77	96.6738
1208.14	148.109
1211.52	65.0508
1214.89	133.92
1218.27	137.088
1221.64	62.332
1225.02	40.8594
1228.39	65.6504
1231.77	85.2539
1235.14	42.0332
1238.52	60.7598
1241.89	32.3711
1245.26	31.5176
1248.64	19.5508
1252.01	27.8594
1255.39	97.0234
1258.76	45.1133
1262.14	29.5938
1265.51	47.4395
1268.89	71.8164
1272.26	68.8008
1275.64	55.834
1279.01	46.75
1282.39	11.5801
1285.76	0.265625
