Measurement: Raman, 780 nm, unoriented, Raman Data Processed
Mineral: Cuspidine
Rruff sample: R060049
Ideal chemistry: Ca_4_(Si_2_O_7_)F_2_
Locality: Ariccia, Rome, Italy
Source: University of Arizona Mineral Museum
Description: White and colorless spear-shaped single crystal
Measured chemistry: Ca_4.00_Si_2.00_O_7_F_2.00_
Raman shift (cm-1)	intensity
108.435	0
111.328	14.3916
114.22	114.796
117.113	141.974
120.006	139.084
122.898	192.113
125.791	205.169
128.684	269.409
131.576	272.494
134.469	300.164
137.362	383.77
140.255	384.949
143.147	357.958
146.04	298.046
148.933	289.728
151.825	136.916
154.718	117.584
157.611	35.2128
160.503	51.7965
163.396	7.7124
166.289	2.66638
169.181	9.1731
172.074	26.4719
174.967	37.5502
177.859	20.5249
180.752	4.2738
183.645	7.66235
186.538	19.2505
189.43	2.98816
192.323	43.2217
195.216	81.1581
198.108	109.418
201.001	106.929
203.894	132.584
206.786	145.1
209.679	186.08
212.572	213.344
215.465	222.114
218.357	230.317
221.25	184.247
224.143	230.776
227.035	224.182
229.928	217.533
232.821	202.967
235.714	225.424
238.606	193.343
241.499	180.84
244.392	161.835
247.284	150.93
250.177	177.127
253.07	185.835
255.962	191.016
258.855	234.668
261.748	340.371
264.64	389.516
267.533	451.552
270.426	471.85
273.319	498.887
276.211	484.515
279.104	474.244
281.997	433.853
284.889	496.799
287.782	428.215
290.675	413.97
293.567	377.354
296.46	338.428
299.353	347.682
302.246	279.829
305.138	310.824
308.031	337.409
310.924	348.663
313.816	340.794
316.709	390.883
319.602	394.592
322.495	409.221
325.387	400.589
328.28	401.242
331.173	454.33
334.065	451.324
336.958	563.864
339.851	431.223
342.743	469.252
345.636	342.538
348.529	172.048
351.421	90.4741
354.314	18.2754
357.207	72.7285
360.1	81.4922
362.992	195.104
365.885	133.132
368.778	166.828
371.67	99.8447
374.563	12.6855
377.456	70.1768
380.349	283.262
383.241	487.082
386.134	614.236
389.027	786.044
391.919	1091.65
394.812	1367.24
397.705	1567.24
400.597	1746.82
403.49	1972.97
406.383	2220.08
409.276	2396.58
412.168	2459.68
415.061	2368.2
417.954	2331.23
420.846	2207.15
423.739	2122.02
426.632	2200.89
429.524	2284.15
432.417	2507.41
435.31	2711.52
438.202	2900.48
441.095	3149.9
443.988	3263.49
446.881	3317.01
449.773	3245.55
452.666	2949.06
455.559	2727.9
458.451	2241.74
461.344	1775.63
464.237	1448.49
467.13	1129.23
470.022	941.881
472.915	936.456
475.808	1035.28
478.7	1081.64
481.593	1290.48
484.486	1621.76
487.378	1848.79
490.271	2186.97
493.164	2514.66
496.057	2853
498.949	3139.71
501.842	3465.69
504.735	3503.37
507.627	3455.11
510.52	3258.28
513.413	2768.55
516.305	2388.17
519.198	2045.98
522.091	1638.42
524.984	1489.48
527.876	1212.52
530.769	1083.59
533.662	918.232
536.554	903.04
539.447	870.6
542.34	784.109
545.232	623.324
548.125	468.148
551.018	419.158
553.91	308.018
556.803	172.194
559.696	72.6689
562.589	18.2339
565.481	134.032
568.374	86.4756
571.267	107.83
574.159	71.7449
577.052	90.6892
579.945	67.4524
582.837	65.4563
585.73	39.9607
588.623	38.7141
591.516	137.031
594.408	148.846
597.301	186.784
600.194	235.589
603.086	284.39
605.979	300.108
608.872	363.601
611.764	427.281
614.657	430.05
617.55	471.76
620.443	471.736
623.335	506.352
626.228	507.579
629.121	528.707
632.013	533.918
634.906	544.378
637.799	522.667
640.692	518.819
643.584	583.668
646.477	658.155
649.37	741.323
652.262	857.39
655.155	820
658.048	721.777
660.94	530.443
663.833	441.721
666.726	343.209
669.619	285.775
672.511	238.142
675.404	208.143
678.297	156.904
681.189	75.9175
684.082	97.2312
686.975	25.2932
689.867	26.53
692.76	62.7549
695.653	14.3728
698.545	37.8628
701.438	6.60547
704.331	8.31079
707.224	29.7427
710.116	26.4402
713.009	78.1719
715.902	58.0024
718.794	83.8096
721.687	93.9062
724.58	163.937
727.472	151.519
730.365	279.411
733.258	250.919
736.151	298.645
739.043	286.219
741.936	280.969
744.829	229.274
747.721	209.742
750.614	200.295
753.507	224.189
756.399	182.237
759.292	138.417
762.185	194.553
765.078	144.451
767.97	136.669
770.863	134.813
773.756	158.675
776.648	159.545
779.541	152.526
782.434	163.319
785.327	176.789
788.219	197.548
791.112	162.365
794.005	157.942
796.897	166.632
799.79	139.746
802.683	151.186
805.575	143.58
808.468	168.237
811.361	132.188
814.254	122.69
817.146	167.314
820.039	130.975
822.932	167.73
825.824	122.258
828.717	181.326
831.61	206.444
834.502	271.149
837.395	249.961
840.288	235.769
843.181	247.957
846.073	238.379
848.966	227.521
851.859	207.827
854.751	201.273
857.644	188.719
860.537	149.417
863.429	117.812
866.322	72.418
869.215	49.1406
872.107	11.4196
875	23.436
877.893	17.9275
880.786	36.5044
883.678	29.2622
886.571	31.4954
889.464	34.2421
892.356	35.7767
895.249	14.2992
898.142	79.8926
901.034	245.345
903.927	485.518
906.82	848.473
909.713	1248.88
912.605	1081
915.498	595.901
918.391	245.604
921.283	85.0813
924.176	44.4485
927.069	30.986
929.962	14.38
932.854	18.8004
935.747	41.9985
938.64	38.376
941.532	19.549
944.425	77.1317
947.318	66.5256
950.21	103.524
953.103	72.8472
955.996	101.895
958.889	106.135
961.781	127.434
964.674	117.358
967.567	171.303
970.459	157.388
973.352	153.603
976.245	151.532
979.137	146.776
982.03	129.22
984.923	123.454
987.816	91.6003
990.708	99.8438
993.601	110.588
996.494	103.237
999.386	98.5027
1002.28	85.8213
1005.17	82.3398
1008.06	67.9814
1010.96	71.4214
1013.85	103.413
1016.74	75.8782
1019.63	87.6072
1022.53	79.9226
1025.42	109.155
1028.31	139.019
1031.21	156.566
1034.1	190.892
1036.99	199.025
1039.88	200.147
1042.78	180.298
1045.67	229.586
1048.56	198.633
1051.45	231.007
1054.35	198.491
1057.24	191.773
1060.13	220.636
1063.03	185.483
1065.92	199.293
1068.81	172.117
1071.7	146.172
1074.6	95.1826
1077.49	105.122
1080.38	54.9453
1083.28	30.5808
1086.17	33.2634
1089.06	18.6125
1091.95	53.0852
1094.85	11.9817
1097.74	10.833
1100.63	11.3198
1103.52	27.7217
1106.42	58.9551
1109.31	3.11475
1112.2	7.4082
1115.09	94.9849
1117.99	154.183
1120.88	163.821
1123.77	268.695
1126.66	383.349
1129.56	383.284
1132.45	410.829
1135.34	450.663
1138.24	394.322
1141.13	219.514
1144.02	223.301
1146.91	78.1201
1149.81	85.8335
1152.7	39.665
1155.59	11.3565
1158.48	101.76
1161.38	74.1963
1164.27	43.1123
1167.16	19.4502
1170.06	40.4775
