Measurement: Raman, 785 nm, unoriented, Raman Data Processed
Mineral: Cyanotrichite
Rruff sample: R070500
Ideal chemistry: Cu^2+^_4_Al_2_S^6+^O_4_(OH)_12_2H_2_O
Locality: Vieja mine, Portrerillos, Chanaral Province, Atacama Region, Chile
Source: James Shigley
Description: Radial aggregates of sky-blue fibers associated with green brochantite
Raman shift (cm-1)	intensity
164.79	0
167.683	10.6444
170.575	22.1795
173.468	26.3475
176.361	1.65579
179.253	17.5382
182.146	16.5363
185.039	17.706
187.931	16.3153
190.824	24.86
193.717	16.7555
196.61	3.0934
199.502	8.91535
202.395	13.7226
205.288	2.78209
208.18	15.3047
211.073	11.6929
213.966	8.09586
216.858	10.4231
219.751	1.64114
222.644	17.6975
225.536	7.64232
228.429	11.0879
231.322	20.9512
234.215	25.1105
237.107	4.94261
240	11.8981
242.893	19.9309
245.785	16.9967
248.678	9.3492
251.571	9.62437
254.464	9.84514
257.356	16.8818
260.249	11.3763
263.142	19.4462
266.034	23.0574
268.927	4.45585
271.82	11.946
274.712	8.34896
277.605	13.0716
280.498	8.76791
283.391	21.2595
286.283	4.19862
289.176	15.9998
292.069	16.045
294.961	10.4292
297.854	28.012
300.747	21.2422
303.639	15.5701
306.532	12.8408
309.425	0.281876
312.318	7.4265
315.21	15.6666
318.103	20.2944
320.996	16.351
323.888	10.7912
326.781	7.10898
329.674	15.6122
332.567	11.6484
335.459	2.99566
338.352	16.1784
341.245	6.54898
344.137	21.9209
347.03	16.2471
349.923	22.3464
352.815	16.1498
355.708	4.36817
358.601	13.6268
361.493	7.0926
364.386	4.31899
367.279	15.8071
370.171	11.9069
373.064	13.0138
375.957	19.4018
378.85	7.50003
381.742	17.7666
384.635	10.5241
387.528	2.48671
390.42	11.549
393.313	4.16711
396.206	3.20972
399.099	4.53321
401.991	4.88157
404.884	7.58116
407.777	20.7713
410.669	4.60047
413.562	7.17174
416.455	22.2452
419.347	13.2998
422.24	17.8513
425.133	14.7547
428.026	30.9774
430.918	19.6788
433.811	34.0055
436.704	25.7116
439.596	24.408
442.489	22.833
445.382	24.8818
448.274	33.1302
451.167	27.8134
454.06	27.2391
456.952	31.5794
459.845	22.0899
462.738	22.758
465.631	15.2807
468.523	9.84772
471.416	5.76684
474.309	0.003479
477.201	9.41426
480.094	7.92054
482.987	1.84325
485.88	6.97422
488.772	8.58607
491.665	23.6855
494.558	11.1941
497.45	10.0529
500.343	24.3808
503.236	26.7748
506.128	25.1388
509.021	42.2028
511.914	36.3822
514.807	40.2655
517.699	33.2771
520.592	35.652
523.485	49.0261
526.377	48.4338
529.27	51.9619
532.163	62.4104
535.056	48.7745
537.948	35.899
540.841	22.8003
543.734	17.0875
546.626	18.0203
549.519	11.6866
552.412	1.15657
555.304	9.89971
558.197	10.3689
561.09	2.0758
563.982	0.987782
566.875	12.9101
569.768	9.09254
572.661	11.6805
575.553	0.655781
578.446	7.76843
581.339	9.15552
584.231	40.5471
587.124	13.5915
590.017	15.0087
592.909	20.4391
595.802	20.3498
598.695	21.2852
601.587	5.78765
604.48	15.1782
607.373	0.176918
610.266	16.0535
613.158	12.5698
616.051	3.7387
618.944	7.06302
621.836	11.4166
624.729	3.52733
627.622	8.62746
630.514	3.27649
633.407	9.86561
636.3	6.15834
639.193	4.48317
642.085	6.38794
644.978	1.50385
647.871	11.2559
650.763	7.79346
653.656	14.469
656.549	16.7946
659.442	8.25104
662.334	18.177
665.227	6.80347
668.12	9.58944
671.012	9.27218
673.905	7.6974
676.798	5.37301
679.69	12.9558
682.583	10.8203
685.476	17.0474
688.369	11.0103
691.261	3.42115
694.154	20.0598
697.047	11.5524
699.939	7.57195
702.832	17.7126
705.725	14.8505
708.617	13.987
711.51	8.96434
714.403	1.79343
717.295	2.56428
720.188	22.7986
723.081	5.97718
725.974	7.56651
728.866	11.1831
731.759	20.8696
734.652	28.1078
737.544	11.7615
740.437	5.36952
743.33	4.10402
746.222	14.698
749.115	7.48476
752.008	6.95922
754.901	5.62961
757.793	12.2492
760.686	7.51694
763.579	0.075544
766.471	24.7989
769.364	8.37025
772.257	18.9532
775.149	9.14926
778.042	16.7082
780.935	11.2668
783.828	12.0526
786.72	13.4166
789.613	11.3788
792.506	8.7934
795.398	17.2914
798.291	10.5334
801.184	10.485
804.077	18.3875
806.969	3.41485
809.862	8.11525
812.755	11.4538
815.647	13.0023
818.54	3.76571
821.433	5.09518
824.325	5.87711
827.218	8.45047
830.111	0.280563
833.004	1.11909
835.896	12.0242
838.789	16.2648
841.682	5.90628
844.574	9.54346
847.467	10.2026
850.36	2.67283
853.252	22.4404
856.145	16.0194
859.038	9.39266
861.931	6.54353
864.823	7.25873
867.716	15.1479
870.609	15.2487
873.501	3.44022
876.394	20.3461
879.287	14.1013
882.179	10.5582
885.072	13.0993
887.965	9.24476
890.857	8.43455
893.75	16.577
896.643	7.30517
899.536	2.57152
902.428	10.0299
905.321	5.07711
908.214	13.9713
911.106	17.9533
913.999	0.727861
916.892	9.41593
919.784	0.709997
922.677	11.4479
925.57	3.86823
928.463	16.2411
931.355	9.58583
934.248	9.70905
937.141	8.1912
940.033	6.46009
942.926	17.1634
945.819	7.40978
948.712	7.09153
951.604	13.4936
954.497	4.02281
957.39	9.39342
960.282	15.5659
963.175	28.0734
966.068	17.5719
968.96	24.7969
971.853	39.6644
974.746	78.8896
977.639	77.383
980.531	51.2789
983.424	11.8403
986.317	9.2365
989.209	22.6643
992.102	13.0295
994.995	5.46912
997.888	10.3283
1000.78	16.8421
1003.67	6.49683
1006.57	3.98246
1009.46	4.36599
1012.35	4.27466
1015.24	11.4231
1018.14	2.03535
1021.03	17.6345
1023.92	13.8602
1026.81	7.69926
1029.71	14.3157
1032.6	10.5405
1035.49	17.9122
1038.38	18.9812
1041.28	1.97445
1044.17	13.9609
1047.06	6.07685
1049.96	5.43857
1052.85	12.4335
1055.74	20.8345
1058.63	5.4024
1061.53	8.30771
1064.42	0.93326
1067.31	7.68897
1070.2	5.1173
1073.1	4.49212
1075.99	6.43182
1078.88	8.42539
1081.78	8.24925
1084.67	10.2943
1087.56	15.3439
1090.45	13.8511
1093.35	20.6534
1096.24	0.80814
1099.13	2.6493
1102.03	1.07269
1104.92	9.34546
1107.81	17.3948
1110.7	18.5237
1113.6	8.88428
1116.49	3.89964
1119.38	15.2671
1122.27	0.057663
1125.17	3.28646
1128.06	14.5938
1130.95	13.7293
1133.84	0.654175
1136.74	11.8781
1139.63	9.31094
1142.52	3.6321
1145.41	5.00399
1148.31	10.0473
1151.2	19.7008
1154.09	13.528
1156.99	7.22011
1159.88	6.43016
1162.77	15.2645
1165.66	3.5739
1168.56	2.14008
1171.45	5.69051
1174.34	6.84031
1177.23	15.6928
1180.13	24.2472
1183.02	18.0274
1185.91	19.2012
1188.81	12.4586
1191.7	24.7216
1194.59	16.4474
1197.48	18.0889
1200.38	19.1492
1203.27	24.4683
1206.16	17.2744
1209.06	17.809
1211.95	14.99
1214.84	11.7558
1217.73	4.00391
1220.62	29.8247
1223.52	1.05813
1226.41	9.43912
1229.3	10.0955
1232.2	21.1186
1235.09	7.18536
1237.98	15.0173
1240.87	22.3604
1243.77	15.8542
1246.66	16.4206
1249.55	3.69635
1252.44	13.4134
1255.34	18.1868
1258.23	11.837
1261.12	1.06528
1264.02	1.30873
1266.91	0
