Measurement: Raman, 532 nm, unoriented, Raman Data Processed
Mineral: Cylindrite
Rruff sample: R050175
Ideal chemistry: FePb_3_Sn_4_Sb_2_S_14_
Locality: Poop√≥ Province, Oruro Department, Bolivia
Source: Marcus Origlieri
Description: Gray tubular aggregates
Measured chemistry: Pb_3.05_Sn_4.25_Fe_0.84_Sb_1.87_S_14.00_
Raman shift (cm-1)	intensity
109.469	0
112.844	1587.18
116.218	8756.26
119.593	11148.3
122.968	7613.52
126.343	5807.45
129.718	7928.01
133.093	10575.2
136.467	10862.3
139.842	9452.24
143.217	8038.15
146.592	8050.94
149.967	8202.75
153.342	7495.79
156.716	6489.9
160.091	5786.9
163.466	5542.81
166.841	5076.52
170.216	4224.99
173.59	3279.64
176.965	2716.66
180.34	2463.88
183.715	1911.57
187.09	1811.29
190.464	1318.53
193.839	859.375
197.214	376.336
200.589	85.508
203.964	132.453
207.339	71.617
210.713	180.707
214.088	293.324
217.463	135.844
220.838	141.668
224.213	223.723
227.587	490.41
230.962	708.387
234.337	993.051
237.712	1015.83
241.087	1217.56
244.462	1159.75
247.836	1181.98
251.211	769.09
254.586	338.59
257.961	53.434
261.336	10.758
264.711	137.723
268.085	78.855
271.46	175.582
274.835	227.336
278.21	35.852
281.585	153.121
284.959	268.469
288.334	121.039
291.709	308.629
295.084	142.754
298.459	247.467
301.833	512.201
305.208	888.883
308.583	1237.6
311.958	1222.12
315.333	1268.63
318.708	1362.26
322.082	1437.03
325.457	1499.55
328.832	1614.17
332.207	1510.51
335.582	1276.16
338.957	1175.7
342.331	1003.48
345.706	829.174
349.081	622.758
352.456	553.16
355.831	195.129
359.205	147.744
362.58	5.107
365.955	11.949
369.33	84.928
372.705	88.658
376.079	209.328
379.454	161.953
382.829	226.607
386.204	332.66
389.579	353.086
392.954	655.01
396.328	694.998
399.703	852.598
403.078	851.766
406.453	1073.31
409.828	1316.89
413.203	1480.31
416.577	1735.4
419.952	1694.72
423.327	1709.93
426.702	1841.82
430.077	1853.07
433.451	1769.65
436.826	1756.22
440.201	1716.73
443.576	1559.07
446.951	1652.7
450.326	1528.44
453.7	1349.87
457.075	1428.6
460.45	1184.12
463.825	1229.72
467.2	994.354
470.574	944.541
473.949	927.4
477.324	744.826
480.699	637.156
484.074	274.91
487.448	274.648
490.823	295
494.198	241.152
497.573	130.402
500.948	10.391
504.323	190.393
507.698	13.301
511.072	24.301
514.447	23.205
517.822	30.555
521.197	197.941
524.571	232.6
527.946	142.795
531.321	133.771
534.696	97.4
538.071	33.41
541.446	49.447
544.82	138.025
548.195	170.414
551.57	59.752
554.945	126.834
558.32	41.439
561.695	115.629
565.069	50.15
568.444	38.295
571.819	148.922
575.194	45.266
578.569	63.777
581.943	174.768
585.318	292.615
588.693	455.164
592.068	613.904
595.443	608.158
598.818	732.252
602.192	831.338
605.567	965.156
608.942	997.057
612.317	1059.06
615.692	950.666
619.067	924.012
622.441	924.137
625.816	925.678
629.191	910.734
632.566	832.35
635.941	1019.61
639.315	955.064
642.69	791.494
646.065	766.973
649.44	485.219
652.815	425.85
656.19	344.928
659.564	293.57
662.939	128.5
666.314	232.84
669.689	125.078
673.064	374.125
676.438	218.254
679.813	242.436
683.188	277.529
686.563	286.518
689.938	366.275
693.312	465.297
696.687	529.754
700.062	523.662
703.437	547.656
706.812	553.631
710.187	656.405
713.561	665.05
716.936	723.404
720.311	613.603
723.686	866.655
727.061	658.614
730.435	598.435
733.81	632.694
737.185	525.267
740.56	504.441
743.935	507.826
747.31	557.574
750.684	296.113
754.059	196.473
757.434	219.654
760.809	177.374
764.184	37.655
767.558	36.785
770.933	97.817
774.308	50.73
777.683	54.468
781.058	69.862
784.433	63.789
787.807	3.659
791.182	27.008
794.557	25.867
797.932	22.991
801.307	133.657
804.682	90.94
808.056	103.953
811.431	146.824
814.806	188.325
818.181	194.77
821.556	195.91
824.93	265.165
828.305	263.827
831.68	354.441
835.055	266.945
838.43	321.534
841.805	362.025
845.179	263.796
848.554	301.812
851.929	207.244
855.304	291.234
858.679	299.815
862.054	243.9
865.428	331.818
868.803	188.782
872.178	172.105
875.553	77.208
878.928	181.364
882.302	159.746
885.677	102.693
889.052	59.652
892.427	106.214
895.802	97.794
899.177	83.773
902.551	45.439
905.926	35.548
909.301	73.293
912.676	45.085
916.05	127.711
919.425	37.831
922.8	101.535
926.175	109.056
929.55	148.933
932.925	101.101
936.299	79.586
939.674	136.083
943.049	190.842
946.424	241.617
949.799	251.902
953.174	279.683
956.548	377.821
959.923	361.263
963.298	256.893
966.673	265.33
970.048	122.292
973.422	144.453
976.797	75.18
980.172	183.548
983.547	179.623
986.922	123.289
990.297	7.914
993.671	19.254
997.046	60.941
1000.42	77.103
1003.8	108.31
1007.17	45.548
1010.54	16.449
1013.92	34.48
1017.29	3.562
1020.67	34.771
1024.05	130.652
1027.42	113.395
1030.79	23.227
1034.17	55.096
1037.54	156.547
1040.92	175.013
1044.29	0.4
1047.67	60.208
1051.04	63.61
1054.42	21.475
1057.79	150.508
1061.17	116.742
1064.54	75.4
1067.92	110.228
1071.29	141.751
1074.67	97.044
1078.04	81.624
1081.42	65.622
1084.79	119.959
1088.17	192.937
1091.54	44.572
1094.92	113.152
1098.29	46.968
1101.67	128.403
1105.04	161.834
1108.41	165.941
1111.79	154.619
1115.16	131.536
1118.54	120.842
1121.91	130.379
1125.29	96.188
1128.66	41.41
1132.04	169.748
1135.41	119.81
1138.79	39.823
1142.16	91.253
1145.54	7.844
1148.91	37.396
1152.29	7.346
1155.66	61.167
1159.04	72.39
1162.41	52.495
1165.79	3.318
1169.16	9.092
1172.54	25.681
1175.91	41.174
1179.29	74.234
1182.66	94.513
1186.04	85.043
1189.41	64.203
1192.79	57.511
1196.16	53.388
1199.54	36.812
1202.91	66.938
1206.29	20.447
1209.66	2.516
1213.04	82.438
1216.41	52.847
1219.78	92.566
1223.16	82.431
1226.53	134.484
1229.91	63.544
1233.28	69.49
1236.66	92.516
1240.03	86.213
1243.41	93.891
1246.78	97.036
1250.16	81.952
1253.53	84.139
1256.91	93.241
1260.28	124.912
1263.66	155.581
1267.03	46.961
1270.41	115.715
1273.78	146.157
1277.16	161.491
1280.53	8.763
1283.91	100.614
1287.28	136.17
1290.66	121.912
1294.03	10.494
1297.4	56.166
1300.78	116.545
