Measurement: Raman, 785 nm, unoriented, Raman Data Processed
Mineral: Cylindrite
Rruff sample: R050175
Ideal chemistry: FePb_3_Sn_4_Sb_2_S_14_
Locality: Poop√≥ Province, Oruro Department, Bolivia
Source: Marcus Origlieri
Description: Gray tubular aggregates
Measured chemistry: Pb_3.05_Sn_4.25_Fe_0.84_Sb_1.87_S_14.00_
Raman shift (cm-1)	intensity
122.492	0
125.385	2.577
128.278	37.752
131.17	208.215
134.063	216.368
136.956	71.226
139.848	26.672
142.741	135.596
145.634	428.613
148.527	851.524
151.419	1105.48
154.312	1127.28
157.205	1030.05
160.097	974.254
162.99	964.692
165.883	957.427
168.775	1080.02
171.668	1047.64
174.561	1053.99
177.454	969.677
180.346	969.102
183.239	883.421
186.132	910.244
189.024	870.079
191.917	959.412
194.81	936.986
197.702	930.776
200.595	939.737
203.488	970.495
206.381	963.422
209.273	964.04
212.166	881.469
215.059	904.104
217.951	988.06
220.844	1029.44
223.737	1019.95
226.629	1122.08
229.522	1020.52
232.415	1053.13
235.307	968.988
238.2	977.122
241.093	953.474
243.986	909.325
246.878	822.853
249.771	752.724
252.664	687.666
255.556	625.536
258.449	559.231
261.342	401.358
264.235	323.773
267.127	212.591
270.02	113.536
272.913	15.899
275.805	9.886
278.698	79.918
281.591	16.963
284.483	18.395
287.376	155.277
290.269	284.757
293.162	460.227
296.054	728.062
298.947	1019.94
301.84	1247.75
304.732	1349.32
307.625	1301.99
310.518	1170.05
313.41	985.619
316.303	782.088
319.196	662.204
322.089	469.379
324.981	346.706
327.874	234.761
330.767	148.202
333.659	76.781
336.552	2.096
339.445	25.091
342.337	3.869
345.23	9.392
348.123	5.895
351.016	11.427
353.908	4.648
356.801	42.446
359.694	82.747
362.586	53.441
365.479	86.679
368.372	103.696
371.264	125.974
374.157	174.209
377.05	187.435
379.943	171.991
382.835	218.89
385.728	219.892
388.621	229.524
391.513	237.602
394.406	228.621
397.299	239.818
400.191	229.533
403.084	248.551
405.977	228.383
408.87	171.629
411.762	146.524
414.655	122.398
417.548	159.562
420.44	149.427
423.333	167.494
426.226	147.976
429.118	102.568
432.011	89.406
434.904	85.268
437.797	97.377
440.689	69.333
443.582	88.988
446.475	109.465
449.367	45.19
452.26	78.819
455.153	52.599
458.045	79.935
460.938	77.865
463.831	81.033
466.724	50.461
469.616	41.119
472.509	54.942
475.402	3.227
478.294	18.682
481.187	5.412
484.08	50.341
486.972	35.128
489.865	40.531
492.758	50.012
495.651	54.229
498.543	58.46
501.436	21.841
504.329	0.653
507.221	19.351
510.114	33.747
513.007	8.258
515.899	14.775
518.792	5.782
521.685	23.052
524.578	27.007
527.47	27.641
530.363	5.471
533.256	19.957
536.148	2.839
539.041	10.634
541.934	2.63
544.826	76.591
547.719	25.495
550.612	26.432
553.505	28.943
556.397	31.115
559.29	30.439
562.183	24.435
565.075	18.732
567.968	7.366
570.861	40.224
573.753	1.565
576.646	30.474
579.539	24.562
582.432	30.829
585.324	36.193
588.217	33.682
591.11	49.051
594.002	22.66
596.895	9.666
599.788	34.006
602.68	8.516
605.573	17.014
608.466	22.843
611.359	4.515
614.251	36.895
617.144	31.084
620.037	33.32
622.929	24.753
625.822	23.448
628.715	31.979
631.607	38.107
634.5	36.138
637.393	14.778
640.286	18.988
643.178	9.24
646.071	14.226
648.964	17.09
651.856	26.307
654.749	27.484
657.642	7.802
660.534	41.967
663.427	32.094
666.32	14.486
669.213	29.831
672.105	44.911
674.998	3.965
677.891	0.183
680.783	1.842
683.676	36.719
686.569	3.825
689.461	12.555
692.354	21.285
695.247	17.763
698.14	15.84
701.032	17.775
703.925	10.034
706.818	28.272
709.71	32.361
712.603	37.419
715.496	36.179
718.388	43.382
721.281	43.079
724.174	32.501
727.067	19.074
729.959	22.241
732.852	39.571
735.745	21.491
738.637	12.684
741.53	48.824
744.423	34.443
747.315	20.007
750.208	6.829
753.101	18.603
755.994	27.015
758.886	15.882
761.779	18.453
764.672	12.909
767.564	41.069
770.457	4.733
773.35	36.415
776.242	22
779.135	23.582
782.028	13.826
784.92	29.513
787.813	40.732
790.706	59.551
793.599	20.167
796.491	35.01
799.384	12.903
802.277	34.284
805.169	15.273
808.062	18.811
810.955	0.92
813.847	20.069
816.74	34.314
819.633	29.463
822.526	18.51
825.418	41.453
828.311	20.404
831.204	40.744
834.096	19.766
836.989	36.451
839.882	24.58
842.774	5.372
845.667	20.814
848.56	39.941
851.453	27.764
854.345	45.634
857.238	23.072
860.131	56.805
863.023	35.607
865.916	43.707
868.809	42.167
871.701	45.272
874.594	19.802
877.487	20.07
880.38	29.827
883.272	0.164
886.165	29.401
889.058	14.444
891.95	31.47
894.843	34.986
897.736	69.3
900.628	13.118
903.521	51.777
906.414	49.083
909.307	19.949
912.199	45.03
915.092	22.712
917.985	14.286
920.877	9.252
923.77	15.356
926.663	4.903
929.555	36.993
932.448	46.153
935.341	27.373
938.234	26.404
941.126	46.953
944.019	31.464
946.912	45.064
949.804	41.736
952.697	27.881
955.59	19.356
958.482	24.078
961.375	9.497
964.268	18.305
967.161	32.408
970.053	13.148
972.946	41.695
975.839	66.049
978.731	31.819
981.624	36.484
984.517	20.069
987.409	57.774
990.302	37.931
993.195	5.625
996.088	18.276
998.98	28.856
1001.87	0.967
1004.77	45.598
1007.66	41.455
1010.55	48.752
1013.44	28.597
1016.34	48.91
1019.23	32.907
1022.12	39.886
1025.02	50.169
1027.91	28.922
1030.8	15.082
1033.69	33.768
1036.59	20.866
1039.48	5.761
1042.37	70.271
1045.26	16.798
1048.16	53.746
1051.05	54.497
1053.94	68.102
1056.83	67.558
1059.73	37.528
1062.62	20.754
1065.51	44.407
1068.4	40.236
1071.3	2.357
1074.19	25.151
1077.08	27.075
1079.98	35.683
1082.87	24.106
1085.76	41.894
1088.65	44.436
1091.55	33.716
1094.44	29.899
1097.33	18.747
1100.22	30.858
1103.12	48.15
1106.01	20.166
1108.9	22.437
1111.8	32.052
1114.69	25.975
1117.58	0.64
1120.47	45.943
1123.37	6.238
1126.26	24.522
1129.15	72.831
1132.05	68.415
1134.94	42.41
1137.83	9.724
1140.72	12.126
1143.62	14.778
1146.51	17.284
1149.4	37.605
1152.29	17.892
1155.19	5.975
1158.08	14.819
1160.97	59.491
1163.86	27.212
1166.76	26.871
1169.65	23.417
1172.54	21.25
1175.43	3.496
1178.33	16.346
1181.22	1.933
1184.11	4.501
1187.01	24.708
1189.9	12.273
1192.79	66.628
1195.68	22.371
1198.58	48.893
1201.47	44.545
1204.36	44.243
1207.26	41.146
1210.15	59.631
1213.04	44.894
1215.93	30.873
1218.83	36.798
1221.72	24.141
1224.61	25.643
1227.5	57.203
1230.4	24.492
1233.29	70.79
1236.18	72.162
1239.07	48.794
1241.97	28.534
1244.86	56.516
1247.75	62.382
1250.64	24.605
1253.54	3.298
1256.43	42.82
1259.32	29.417
1262.22	58.224
1265.11	36.621
1268	52.147
1270.89	44.367
