Measurement: Raman, 785 nm, unoriented, Raman Data Processed
Mineral: Cylindrite
Rruff sample: R050329
Ideal chemistry: FePb_3_Sn_4_Sb_2_S_14_
Locality: Poop√≥ Province, Oruro Department, Bolivia
Source: Lloyd Twaites
Description: Aggregate of silvery white metallic cylindrical tubes
Measured chemistry: Pb_2.76_Sn_4.60_Fe_0.84_Sb_1.80_S_14_
Raman shift (cm-1)	intensity
122.492	0
125.385	7.095
128.278	85.97
131.17	474.707
134.063	429.553
136.956	93.05
139.848	1.034
142.741	119.213
145.634	706.171
148.527	1306.51
151.419	1719.79
154.312	1663.56
157.205	1457.03
160.097	1282.34
162.99	1221.05
165.883	1274.9
168.775	1383.76
171.668	1374.63
174.561	1345
177.454	1230.03
180.346	1193.17
183.239	1087.78
186.132	1056.3
189.024	1045.07
191.917	1045.73
194.81	998.178
197.702	1041.33
200.595	1024.81
203.488	1092.38
206.381	1097
209.273	1077.74
212.166	1062.15
215.059	1057.15
217.951	1132.42
220.844	1212.68
223.737	1270.73
226.629	1410.22
229.522	1423.61
232.415	1423.4
235.307	1434.25
238.2	1447.79
241.093	1438.19
243.986	1412.28
246.878	1345.71
249.771	1290.79
252.664	1191.59
255.556	957.252
258.449	894.515
261.342	677.666
264.235	483.329
267.127	335.604
270.02	179.168
272.913	58.354
275.805	21.5
278.698	88.851
281.591	38.688
284.483	2.427
287.376	158.162
290.269	280.392
293.162	517.34
296.054	770.949
298.947	1044.01
301.84	1326.4
304.732	1489.65
307.625	1500.71
310.518	1378.48
313.41	1210.82
316.303	1013.5
319.196	863.109
322.089	645.023
324.981	499.264
327.874	315.026
330.767	165.487
333.659	38.569
336.552	18.696
339.445	18.126
342.337	42.9
345.23	47.013
348.123	27.594
351.016	20.267
353.908	32.431
356.801	78.216
359.694	108.558
362.586	110.507
365.479	135.493
368.372	175.279
371.264	209.731
374.157	278.832
377.05	285.593
379.943	247.768
382.835	320.774
385.728	328.15
388.621	358.323
391.513	364.541
394.406	367.272
397.299	369.423
400.191	337.274
403.084	306.658
405.977	297.244
408.87	233.797
411.762	252.358
414.655	203.658
417.548	208.475
420.44	210.155
423.333	212.461
426.226	206.127
429.118	157.751
432.011	148.396
434.904	127.005
437.797	159.357
440.689	118.22
443.582	128.395
446.475	129.106
449.367	94.338
452.26	101.355
455.153	98.916
458.045	86.522
460.938	82.803
463.831	87.385
466.724	61.323
469.616	56.294
472.509	69.546
475.402	32.019
478.294	41.029
481.187	54.823
484.08	38.471
486.972	23.084
489.865	38.665
492.758	52.936
495.651	49.77
498.543	73.502
501.436	37.608
504.329	15.041
507.221	47.773
510.114	18.193
513.007	5.985
515.899	18.54
518.792	4.63
521.685	12.563
524.578	13.589
527.47	18.842
530.363	2.584
533.256	2.164
536.148	6.688
539.041	0.905
541.934	21.944
544.826	49.239
547.719	13.054
550.612	9.455
553.505	5.038
556.397	23.046
559.29	35.718
562.183	11.874
565.075	7.727
567.968	1.056
570.861	13.382
573.753	2.255
576.646	33.387
579.539	25.455
582.432	25.933
585.324	22.648
588.217	18.935
591.11	31.415
594.002	49.092
596.895	19.792
599.788	21.227
602.68	13.42
605.573	20.105
608.466	13.111
611.359	7.547
614.251	31.57
617.144	22.637
620.037	34.669
622.929	18.638
625.822	52.561
628.715	17.055
631.607	8.809
634.5	32.801
637.393	14.956
640.286	10.709
643.178	14.466
646.071	9.522
648.964	1.029
651.856	29.174
654.749	32.051
657.642	23.859
660.534	46.513
663.427	36.66
666.32	26.162
669.213	31.76
672.105	50.255
674.998	11.86
677.891	4.596
680.783	9.045
683.676	39.583
686.569	11.884
689.461	45.439
692.354	31.213
695.247	37.986
698.14	21.083
701.032	30.195
703.925	19.238
706.818	38.403
709.71	35.025
712.603	46.305
715.496	63.125
718.388	63.039
721.281	13.893
724.174	55.933
727.067	56.033
729.959	32.498
732.852	40.67
735.745	14.87
738.637	23.036
741.53	55.841
744.423	58.349
747.315	10.818
750.208	10.408
753.101	29.491
755.994	43.755
758.886	48.381
761.779	11.416
764.672	13.672
767.564	40.059
770.457	8.27
773.35	33.439
776.242	29.082
779.135	41.911
782.028	36.038
784.92	28.003
787.813	45.639
790.706	46.196
793.599	24.477
796.491	40.999
799.384	8.569
802.277	17.541
805.169	18.49
808.062	12.646
810.955	1.752
813.847	5.188
816.74	41.537
819.633	18.817
822.526	25.68
825.418	39.235
828.311	37.19
831.204	52.042
834.096	26.118
836.989	32.076
839.882	28.882
842.774	8.732
845.667	32.922
848.56	44.539
851.453	19.117
854.345	25.037
857.238	10.659
860.131	41.398
863.023	27.64
865.916	46.149
868.809	29.61
871.701	41.578
874.594	23.498
877.487	13.634
880.38	31.635
883.272	2.582
886.165	28.519
889.058	0.378
891.95	37.641
894.843	41.535
897.736	64.804
900.628	23.429
903.521	45.324
906.414	44.77
909.307	19.474
912.199	44.4
915.092	27.07
917.985	3.627
920.877	17.066
923.77	5.963
926.663	7.054
929.555	43.271
932.448	50.329
935.341	41.355
938.234	9.48
941.126	46.547
944.019	22.257
946.912	52.812
949.804	31.909
952.697	33.699
955.59	15.197
958.482	32.074
961.375	8.185
964.268	10.55
967.161	27.406
970.053	10.014
972.946	53.905
975.839	72.995
978.731	45.396
981.624	27.141
984.517	27.261
987.409	49.487
990.302	47.449
993.195	23.439
996.088	22.098
998.98	21.735
1001.87	5.408
1004.77	40.862
1007.66	49.816
1010.55	41.022
1013.44	47.206
1016.34	44.679
1019.23	39.903
1022.12	30.606
1025.02	44.294
1027.91	24.028
1030.8	9.719
1033.69	34.787
1036.59	12.237
1039.48	18.35
1042.37	58.279
1045.26	12.237
1048.16	65.627
1051.05	63.201
1053.94	73.399
1056.83	73.896
1059.73	35.149
1062.62	33.378
1065.51	49.935
1068.4	36.865
1071.3	7.916
1074.19	20.612
1077.08	20.972
1079.98	57.652
1082.87	24.277
1085.76	43.077
1088.65	56.486
1091.55	30.943
1094.44	34.453
1097.33	33.302
1100.22	40.95
1103.12	33.949
1106.01	16.832
1108.9	16.925
1111.8	29.278
1114.69	33.072
1117.58	7.9
1120.47	46.657
1123.37	1.476
1126.26	34.656
1129.15	72.907
1132.05	71.759
1134.94	39.814
1137.83	10.705
1140.72	15.682
1143.62	16.044
1146.51	26.774
1149.4	36.843
1152.29	17.335
1155.19	0.877
1158.08	23.306
1160.97	60.608
1163.86	12.087
1166.76	31.058
1169.65	40.854
1172.54	40.201
1175.43	0.767
1178.33	19.954
1181.22	9.91
1184.11	4.886
1187.01	14.929
1189.9	4.604
1192.79	30.386
1195.68	14.963
1198.58	46.705
1201.47	42.772
1204.36	26.31
1207.26	35.415
1210.15	46.099
1213.04	45.34
1215.93	37.602
1218.83	43.926
1221.72	37.975
1224.61	29.477
1227.5	50.888
1230.4	42.323
1233.29	64.626
1236.18	66.901
1239.07	27.454
1241.97	35.727
1244.86	60.782
1247.75	63.339
1250.64	25.29
1253.54	2.707
1256.43	18.049
1259.32	30.359
1262.22	56.518
1265.11	14.209
1268	63.962
1270.89	34.288
