Measurement: Raman, 532 nm, unoriented, Raman Data Processed
Mineral: Cylindrite
Rruff sample: R050329
Ideal chemistry: FePb_3_Sn_4_Sb_2_S_14_
Locality: Poop√≥ Province, Oruro Department, Bolivia
Source: Lloyd Twaites
Description: Aggregate of silvery white metallic cylindrical tubes
Measured chemistry: Pb_2.76_Sn_4.60_Fe_0.84_Sb_1.80_S_14_
Raman shift (cm-1)	intensity
103.683	0
107.058	242.327
110.433	1347.11
113.808	2374.2
117.183	4401.26
120.558	4724.54
123.932	3747.15
127.307	3334.8
130.682	3848.88
134.057	4364.74
137.432	4291.54
140.806	3802.05
144.181	3321.55
147.556	3263.32
150.931	3070.99
154.306	2888
157.68	2533.38
161.055	2341.03
164.43	2065.65
167.805	1754.91
171.18	1482.85
174.555	1180.35
177.929	1027.38
181.304	893.571
184.679	742.558
188.054	666.097
191.429	538.562
194.803	324.101
198.178	241.057
201.553	119.771
204.928	120.348
208.303	79.334
211.678	27.303
215.052	89.219
218.427	72.781
221.802	57.346
225.177	0.261
228.552	5.331
231.926	26.419
235.301	75.367
238.676	29.658
242.051	138.207
245.426	158.375
248.801	82.729
252.176	114.753
255.55	0.839
258.925	17.972
262.3	21.806
265.675	105.588
269.05	23.571
272.424	15.487
275.799	70.62
279.174	62.502
282.549	28.577
285.924	60.423
289.298	105.435
292.673	159.25
296.048	184.286
299.423	223.027
302.798	363.04
306.173	403.129
309.547	477.92
312.922	519.764
316.297	550.404
319.672	450.457
323.047	566.992
326.422	565.748
329.796	576.433
333.171	544.984
336.546	428.158
339.921	439.03
343.296	330.061
346.67	274.419
350.045	289.801
353.42	267.315
356.795	174.411
360.17	115.067
363.544	105
366.919	55.602
370.294	42.318
373.669	65.828
377.044	9.146
380.419	24.929
383.793	22.633
387.168	43.075
390.543	49.692
393.918	62.986
397.293	92.777
400.668	137.575
404.042	110.118
407.417	216.086
410.792	269.81
414.167	263.357
417.542	317.771
420.916	350.643
424.291	386.497
427.666	352.27
431.041	377.302
434.416	371.66
437.79	390.792
441.165	333.521
444.54	406.381
447.915	436.559
451.29	396.691
454.665	406.385
458.039	407.203
461.414	318.361
464.789	307.857
468.164	325.384
471.539	282.507
474.914	278.733
478.288	227.076
481.663	218.751
485.038	220.777
488.413	214.92
491.788	143.876
495.162	105.078
498.537	95.859
501.912	102.442
505.287	99.058
508.662	83.794
512.036	63.484
515.411	65.542
518.786	77.22
522.161	75.205
525.536	45.897
528.911	48.414
532.286	20.343
535.66	38.785
539.035	24.233
542.41	2.817
545.785	61.555
549.159	50.878
552.534	22.872
555.909	6.66
559.284	44.771
562.659	28.687
566.034	34.261
569.408	26.948
572.783	20.956
576.158	22.416
579.533	38.566
582.908	39.987
586.282	50.368
589.657	96.948
593.032	63.973
596.407	50.313
599.782	100.563
603.157	131.516
606.531	105.726
609.906	139.479
613.281	153.266
616.656	170.016
620.031	193.684
623.406	154.961
626.78	100.376
630.155	118.424
633.53	141.392
636.905	64.02
640.28	41.531
643.654	39.618
647.029	14.08
650.404	6.634
653.779	29.066
657.154	55.652
660.529	89.641
663.903	42.943
667.278	105.021
670.653	40.142
674.028	97.477
677.403	135.599
680.778	89.865
684.152	146.194
687.527	165.575
690.902	136.779
694.277	164.983
697.652	170.173
701.026	207.725
704.401	214.193
707.776	198.229
711.151	239.595
714.526	246.024
717.901	234.561
721.275	235.523
724.65	198.85
728.025	234.082
731.4	215.307
734.775	218.785
738.149	200.749
741.524	206.561
744.899	161.891
748.274	138.942
751.649	168.085
755.023	85.253
758.398	88.26
761.773	78.645
765.148	53.709
768.523	10.192
771.898	49.232
775.272	17.725
778.647	5.607
782.022	28.202
785.397	3.566
788.772	19.523
792.146	25.059
795.521	2.485
798.896	48.075
802.271	43.574
805.646	39.969
809.021	7.254
812.395	30.596
815.77	26.133
819.145	8.034
822.52	37.767
825.895	76.604
829.269	63.625
832.644	70.568
836.019	74.397
839.394	59.161
842.769	106.883
846.144	57.352
849.518	74.7
852.893	53.824
856.268	69.301
859.643	45.499
863.018	63.679
866.393	108.962
869.767	29.896
873.142	49.541
876.517	73.934
879.892	62.128
883.267	57.471
886.641	60.968
890.016	27.105
893.391	34.892
896.766	42.753
900.141	16.522
903.516	11.652
906.89	17.159
910.265	84.03
913.64	24.766
917.015	40.654
920.39	14.631
923.765	36.281
927.139	69.545
930.514	44.386
933.889	9.361
937.264	12.458
940.638	18.878
944.013	46.213
947.388	35.653
950.763	3.499
954.138	44.381
957.513	31.462
960.888	10.187
964.262	24.159
967.637	35.711
971.012	0.326
974.387	35.896
977.761	59.893
981.136	23.751
984.511	10.799
987.886	47.44
991.261	74.292
994.636	34.34
998.01	51.2
1001.38	25.878
1004.76	0.293
1008.13	26.383
1011.51	25.465
1014.88	30.943
1018.26	8.696
1021.63	2.748
1025.01	37.07
1028.38	40.112
1031.76	57.401
1035.13	19.585
1038.51	58.527
1041.88	29.758
1045.26	4.448
1048.63	13.881
1052.01	42.281
1055.38	19.658
1058.76	38.786
1062.13	45.786
1065.51	52.482
1068.88	62.216
1072.26	63.969
1075.63	69.834
1079.01	21.577
1082.38	34.089
1085.76	38.886
1089.13	31.509
1092.51	25.692
1095.88	38.606
1099.26	50.83
1102.63	21.015
1106.01	67.821
1109.38	63.687
1112.75	56.828
1116.13	43.969
1119.5	24.421
1122.88	20.751
1126.25	0.7
1129.63	24.854
1133	39.101
1136.38	57.414
1139.75	30.048
1143.13	39.757
1146.5	16.295
1149.88	57.062
1153.25	69.921
1156.63	38.997
1160	30.326
1163.38	11.024
1166.75	21.3
1170.13	35.116
1173.5	29.271
1176.88	3.297
1180.25	57.106
1183.62	46.907
1187	33.671
1190.38	46.286
1193.75	31.2
1197.12	35.189
1200.5	31.753
1203.87	40.487
1207.25	44.616
1210.62	64.695
1214	27.291
1217.37	44.766
1220.75	1.707
1224.12	58.458
1227.5	61.498
1230.87	14.61
1234.25	92.129
1237.62	9.569
1241	27.263
1244.37	50.28
1247.75	61.311
1251.12	39.982
1254.5	46.047
1257.87	52.602
1261.25	50.398
1264.62	23.351
1268	27.203
1271.37	60.004
1274.75	74.155
1278.12	32.683
1281.49	41.178
1284.87	14.057
1288.24	29.794
1291.62	31.031
1294.99	22.411
1298.37	46.339
