Measurement: Raman, 514 nm, unoriented, Raman Data Processed
Mineral: Cylindrite
Rruff sample: R050175
Ideal chemistry: FePb_3_Sn_4_Sb_2_S_14_
Locality: Poop√≥ Province, Oruro Department, Bolivia
Source: Marcus Origlieri
Description: Gray tubular aggregates
Measured chemistry: Pb_3.05_Sn_4.25_Fe_0.84_Sb_1.87_S_14.00_
Raman shift (cm-1)	intensity
66.952	0
71.148	986.25
75.342	955.473
79.533	1246.34
83.723	144.471
87.91	823.025
92.096	194.381
96.279	586.789
100.461	651.221
104.64	2029.12
108.817	1919.23
112.992	2144.2
117.166	2422.4
121.337	2374.56
125.506	2447.2
129.673	2406.24
133.838	2551.63
138.001	1968.02
142.162	1594.66
146.321	1391.52
150.478	1302.42
154.633	1176.76
158.786	997.924
162.937	532.434
167.086	641.103
171.233	220.24
175.378	427.052
179.521	433.644
183.662	451.215
187.8	329.775
191.937	212.488
196.072	367.831
200.205	58.398
204.336	251.807
208.465	88.713
212.591	248.405
216.716	129.42
220.839	169.206
224.96	66.729
229.079	74.282
233.195	27.34
237.31	391.388
241.423	196.776
245.534	317.899
249.643	218.367
253.75	174.42
257.855	30.951
261.958	131.346
266.059	32.368
270.158	42.088
274.255	56.611
278.35	114.499
282.443	19.234
286.534	84.606
290.623	76.9
294.71	92.101
298.795	82.292
302.878	15.9
306.959	135.541
311.038	186.187
315.116	121.832
319.191	182.046
323.264	153.31
327.336	261.087
331.405	367.31
335.473	363.382
339.538	232.739
343.602	247.42
347.663	185.567
351.723	272.871
355.78	264.365
359.836	267.469
363.89	324.804
367.942	298.379
371.992	410.479
376.04	298.078
380.086	435.873
384.13	412.079
388.172	420.622
392.212	475.499
396.25	429.824
400.286	499.185
404.321	488.698
408.353	625.196
412.384	757.06
416.412	711.256
420.439	758.423
424.464	866.779
428.486	922.784
432.507	859.676
436.526	860.938
440.543	897.752
444.558	999.67
448.572	945.12
452.583	919.377
456.592	885.053
460.6	824.123
464.605	836.873
468.609	698.192
472.61	610.799
476.61	677.381
480.608	608.188
484.604	602.167
488.598	657.858
492.59	751.48
496.58	743.267
500.569	950.683
504.555	816.8
508.54	786.196
512.522	720.014
516.503	693.975
520.482	705.607
524.459	814.816
528.434	712.095
532.407	749.316
536.378	777.386
540.348	707.989
544.315	752.304
548.281	691.845
552.244	764.976
556.206	626.631
560.166	721.103
564.124	792.373
568.08	751.271
572.035	734.662
575.987	648.639
579.938	551.21
583.886	453.509
587.833	347.516
591.778	278.24
595.721	290.332
599.662	231.361
603.602	151.28
607.539	265.411
611.475	276.454
615.408	225.459
619.34	266.201
623.27	285.331
627.199	276.309
631.125	245.97
635.049	241.279
638.972	215.535
642.893	235.627
646.811	258.194
650.728	317.691
654.644	275.748
658.557	279.804
662.468	339.569
666.378	368.298
670.286	350.617
674.192	280.771
678.096	412.501
681.998	471.814
685.898	441.399
689.797	403.133
693.694	451.806
697.589	433.273
701.482	509.283
705.373	470.65
709.262	512.482
713.15	372.188
717.035	417.593
720.919	359.352
724.801	430.399
728.682	404.623
732.56	279.86
736.437	276.471
740.311	325.853
744.184	316
748.055	223.411
751.925	80.991
755.792	67.726
759.658	92.936
763.522	88.599
767.384	11.543
771.244	32.265
775.102	21.584
778.959	20.59
782.814	3.633
786.667	27.854
790.518	24.002
794.367	54.22
798.215	33.107
802.061	10.338
805.905	48.661
809.747	6.177
813.587	57.664
817.426	29.131
821.263	39.585
825.098	37.377
828.931	29.184
832.762	11.652
836.592	37.033
840.42	46.709
844.246	14.979
848.07	125.74
851.892	71.977
855.713	29.709
859.532	57.96
863.349	52.78
867.164	69.166
870.978	59.133
874.789	114.637
878.599	132.716
882.408	129.399
886.214	120.66
890.019	112.505
893.822	140.906
897.623	166.933
901.422	148.791
905.22	129.547
909.015	150.791
912.809	148.932
916.602	256.383
920.392	211.446
924.181	227.601
927.968	196.756
931.753	255.912
935.536	243.431
939.318	279.271
943.098	287.836
946.876	298.239
950.653	269.195
954.427	207.677
958.2	306.121
961.971	290.791
965.741	312.967
969.508	304.625
973.274	256.176
977.039	316.779
980.801	354.061
984.562	327.161
988.321	392.574
992.078	392.42
995.833	340.049
999.587	363.896
1003.34	390.621
1007.09	424.655
1010.84	352.466
1014.58	328.903
1018.33	297.868
1022.07	310.388
1025.81	323.045
1029.55	345.537
1033.29	383.242
1037.03	389.585
1040.76	324.064
1044.5	308.972
1048.23	297.429
1051.96	270.045
1055.68	338.297
1059.41	334.714
1063.13	316.256
1066.86	252.206
1070.58	248.992
1074.3	211.848
1078.02	208.59
1081.73	223.4
1085.44	235.449
1089.16	223.371
1092.87	222.346
1096.58	177.236
1100.28	210.258
1103.99	159.448
1107.69	164.311
1111.39	161.876
1115.1	147.439
1118.8	130.513
1122.49	192.727
1126.19	115.891
1129.88	78.822
1133.57	110.191
1137.26	124.106
1140.95	137.056
1144.64	94.802
1148.32	39.914
1152.01	4.295
1155.69	35.509
1159.37	13.481
1163.05	27.907
1166.72	34.965
1170.4	63.645
1174.07	58.326
1177.74	26.906
1181.41	40.45
1185.08	34.071
1188.75	0.377
1192.41	23.193
1196.08	24.709
1199.74	36.35
1203.4	9.99
1207.06	3.575
1210.71	18.069
1214.37	9.554
1218.02	47.04
1221.67	39.629
1225.32	65.072
1228.97	51.104
1232.62	46.063
1236.26	76.323
1239.9	37.865
1243.55	44.281
1247.18	3.956
1250.82	5.708
1254.46	27.607
1258.1	14.027
1261.73	21.563
1265.36	14.503
1268.99	58.815
1272.62	34.968
1276.24	25.958
1279.87	2.059
1283.49	2.045
1287.11	36.042
1290.73	83.92
1294.35	77.694
1297.97	59.003
1301.58	20.446
1305.2	3.779
1308.81	0.558
1312.42	11.463
1316.03	36.8
1319.63	42.445
1323.24	48.371
1326.84	52.558
1330.44	46.623
1334.05	103.648
1337.64	76.502
1341.24	42.778
1344.84	11.725
1348.43	56.582
1352.02	133.627
1355.61	107.534
1359.2	78.949
1362.79	58.884
1366.37	66.68
1369.96	32.647
1373.54	49.404
1377.12	3.279
1380.7	29.277
1384.28	157.82
1387.85	14.263
1391.43	47.045
1395	59.728
1398.57	72.362
1402.14	67.884
1405.71	74.299
1409.28	3.642
1412.84	17.727
1416.4	67.646
1419.96	51.8
1423.52	50.19
1427.08	36.033
1430.64	68.99
1434.19	95.316
1437.75	52.852
1441.3	103.969
1444.85	76.543
1448.4	66.328
1451.94	50.426
1455.49	54.638
1459.03	38.019
1462.58	33.295
1466.12	49.805
1469.65	51.2
1473.19	16.83
1476.73	52.661
1480.26	37.949
1483.8	81.706
1487.33	57.96
1490.86	64.399
1494.38	25.088
1497.91	0
