Measurement: Raman, 532 nm, unoriented, Raman Data Processed
Mineral: Dadsonite
Rruff sample: R060246
Ideal chemistry: Pb^2+^_23_Sb^3+^_25_S^2-^_60_Cl
Locality: St. Pons, Barconlette, Haute Alpes, France
Source: William W. Pinch
Description: Black fibers, resembling steel wool, known as the 4-angstrom structure
Raman shift (cm-1)	intensity
167.631	0
170.524	9.34305
173.416	5.95616
176.309	30.8199
179.202	9.95373
182.094	31.3539
184.987	3.95207
187.88	7.32407
190.773	12.7785
193.665	10.7537
196.558	17.817
199.451	14.6383
202.343	5.74109
205.236	23.3436
208.129	29.5253
211.021	11.5232
213.914	12.4725
216.807	26.4993
219.699	17.4256
222.592	16.0775
225.485	26.3627
228.377	20.778
231.27	18.0377
234.163	24.0875
237.056	20.8039
239.948	17.3245
242.841	3.98253
245.734	6.74093
248.626	26.0764
251.519	12.4662
254.412	9.82496
257.305	12.771
260.197	19.8291
263.09	6.46648
265.983	8.45917
268.875	21.0357
271.768	4.88477
274.661	13.0978
277.553	16.2257
280.446	4.52379
283.339	9.41066
286.232	0.893631
289.124	4.81264
292.017	1.72089
294.91	17.8917
297.802	4.93877
300.695	13.6479
303.588	19.8039
306.481	25.5569
309.373	20.3877
312.266	22.3276
315.159	25.9422
318.051	26.9506
320.944	42.5534
323.837	39.5674
326.729	41.9895
329.622	51.6905
332.515	39.6376
335.408	36.3029
338.3	19.3567
341.193	15.3431
344.086	14.4624
346.978	3.32943
349.871	6.31443
352.764	0.370472
355.656	3.97934
358.549	5.02045
361.442	2.03819
364.334	1.96663
367.227	8.1269
370.12	0.086349
373.012	11.8035
375.905	0.474552
378.798	9.40676
381.691	4.44758
384.583	7.4189
387.476	0.755678
390.369	5.72363
393.261	19.7772
396.154	4.75642
399.047	2.332
401.94	7.98098
404.832	8.03946
407.725	6.25118
410.618	11.8307
413.51	10.2121
416.403	5.05838
419.296	13.537
422.188	4.97839
425.081	5.32759
427.974	6.00657
430.866	8.11524
433.759	12.2427
436.652	21.076
439.545	21.9098
442.437	11.0951
445.33	6.74695
448.223	19.6562
451.115	10.1515
454.008	11.6245
456.901	9.0221
459.793	6.22916
462.686	18.9959
465.579	4.40783
468.472	4.54231
471.364	10.5052
474.257	5.683
477.15	5.85229
480.042	9.36121
482.935	17.3443
485.828	15.3545
488.721	16.1121
491.613	15.8923
494.506	8.93659
497.399	5.76753
500.291	5.90348
503.184	7.95307
506.077	12.8326
508.969	5.42929
511.862	17.2222
514.755	10.6638
517.648	14.3989
520.54	4.29371
523.433	1.87552
526.326	5.77284
529.218	7.87025
532.111	1.65983
535.004	6.95929
537.896	10.352
540.789	2.19528
543.682	3.66309
546.575	5.28294
549.467	8.61631
552.36	5.24626
555.253	4.57137
558.145	10.0445
561.038	7.32132
563.931	7.97421
566.823	6.49348
569.716	10.116
572.609	9.36626
575.502	3.87617
578.394	13.9444
581.287	0.979296
584.18	0.755017
587.072	8.72986
589.965	8.59354
592.858	5.88814
595.75	1.27863
598.643	7.96748
601.536	0.427646
604.428	12.7852
607.321	3.48617
610.214	3.09486
613.107	5.88312
615.999	10.567
618.892	12.6369
621.785	9.95909
624.677	12.0072
627.57	8.0055
630.463	11.73
633.356	7.6167
636.248	10.5619
639.141	1.05891
642.034	11.0379
644.926	9.31653
647.819	6.06743
650.712	7.23144
653.604	15.7448
656.497	5.15264
659.39	4.9175
662.283	9.73916
665.175	14.2521
668.068	0.983527
670.961	10.181
673.853	5.33124
676.746	2.52866
679.639	3.11699
682.531	11.71
685.424	15.7937
688.317	15.6464
691.21	10.4367
694.102	10.8187
696.995	3.82745
699.888	0.112282
702.78	0.771918
705.673	16.3016
708.566	16.2936
711.458	10.1446
714.351	22.1033
717.244	0.122517
720.136	15.1341
723.029	17.9585
725.922	13.2909
728.815	14.8635
731.707	9.03852
734.6	16.4306
737.493	13.0303
740.385	1.25882
743.278	7.37759
746.171	18.1214
749.063	8.50007
751.956	14.8707
754.849	17.4725
757.742	3.53226
760.634	14.7329
763.527	7.24994
766.42	9.27758
769.312	9.1014
772.205	7.35222
775.098	16.3623
777.99	10.9627
780.883	9.71949
783.776	2.67094
786.669	9.85101
789.561	6.16888
792.454	3.69478
795.347	10.8332
798.239	5.66188
801.132	13.8094
804.025	1.95975
806.918	8.4716
809.81	13.4734
812.703	11.83
815.596	1.60986
818.488	7.89989
821.381	20.4623
824.274	6.89497
827.166	8.1115
830.059	16.5979
832.952	3.82028
835.845	9.4254
838.737	16.859
841.63	6.52427
844.523	12.7937
847.415	6.36191
850.308	9.28694
853.201	0.97684
856.093	11.1518
858.986	8.93121
861.879	6.25988
864.771	11.5709
867.664	7.6482
870.557	11.0989
873.45	0.373465
876.342	2.04392
879.235	5.45223
882.128	8.86109
885.02	2.11967
887.913	19.2126
890.806	7.95556
893.698	4.19561
896.591	11.5123
899.484	4.4851
902.377	5.68239
905.269	0.05336
908.162	4.43502
911.055	10.193
913.947	7.24114
916.84	3.60034
919.733	15.5252
922.625	6.93646
925.518	4.0271
928.411	5.90846
931.304	5.70928
934.196	4.44996
937.089	17.5544
939.982	6.51923
942.875	2.56945
945.767	14.7166
948.66	3.86753
951.553	11.7462
954.445	6.80248
957.338	12.1948
960.231	7.16293
963.123	16.1301
966.016	14.5349
968.909	5.85508
971.802	0.329798
974.694	1.87984
977.587	11.4129
980.48	14.2494
983.372	11.7743
986.265	12.5953
989.158	0.696663
992.05	9.52636
994.943	11.7921
997.836	8.67343
1000.73	1.87995
1003.62	3.4365
1006.51	0.888744
1009.41	7.44501
1012.3	8.13879
1015.19	8.88645
1018.09	3.86014
1020.98	7.8818
1023.87	9.25633
1026.76	1.66404
1029.66	9.6844
1032.55	8.89193
1035.44	5.38215
1038.33	6.28852
1041.23	9.12265
1044.12	5.15686
1047.01	6.35719
1049.9	15.2292
1052.8	3.94135
1055.69	4.86425
1058.58	7.20484
1061.47	0.271895
1064.37	4.40348
1067.26	11.164
1070.15	14.9869
1073.05	9.33625
1075.94	18.21
1078.83	7.88911
1081.72	17.5982
1084.62	1.56142
1087.51	15.7461
1090.4	10.5537
1093.3	3.19023
1096.19	3.96893
1099.08	7.49306
1101.97	1.5932
1104.87	7.09213
1107.76	20.4357
1110.65	1.97819
1113.54	7.5161
1116.44	11.7429
1119.33	12.9557
1122.22	12.733
1125.12	6.03081
1128.01	11.7101
1130.9	11.4826
1133.79	10.4852
1136.68	4.46522
1139.58	4.80249
1142.47	13.5962
1145.36	7.99141
1148.26	3.69967
1151.15	9.22267
1154.04	9.41723
1156.93	10.3809
1159.83	9.48606
1162.72	11.7156
1165.61	2.3277
1168.51	0.781542
1171.4	8.55183
1174.29	0.875298
1177.18	14.7063
1180.08	9.81493
1182.97	10.1268
1185.86	18.6767
1188.75	16.5371
1191.65	7.8329
1194.54	8.48199
1197.43	6.46261
1200.33	1.20298
1203.22	11.4579
1206.11	4.34141
1209	9.18481
1211.9	17.4746
1214.79	7.16124
1217.68	9.7133
1220.57	4.68421
1223.47	10.5842
1226.36	1.77678
1229.25	14.0043
1232.14	3.94625
1235.04	9.02615
1237.93	3.2208
1240.82	12.3491
1243.71	16.8453
1246.61	3.533
1249.5	3.09188
1252.39	8.96988
1255.29	14.9737
1258.18	2.25323
1261.07	16.2319
1263.96	5.01206
1266.86	2.28798
1269.75	14.2474
1272.64	1.00779
1275.54	9.68012
1278.43	9.37365
1281.32	15.3281
1284.21	6.68507
1287.11	15.1241
1290	4.59273
1292.89	0.177621
1295.78	11.1788
1298.68	8.82724
1301.57	0.125453
