Measurement: Raman, 780 nm, unoriented, Raman Data Processed
Mineral: Danburite
Rruff sample: R050602
Ideal chemistry: CaB_2_Si_2_O_8_
Locality: Mogok, Burma
Source: Bill Larson
Description: Yellowish brown fragment
Measured chemistry: Ca_1.00_B_2.00_(Si_1.00_O_4_)_2_
Raman shift (cm-1)	intensity
149.919	0
152.812	212.934
155.705	345.086
158.597	829.975
161.49	2012.19
164.383	1724.8
167.276	735.346
170.168	240.228
173.061	759.857
175.954	3149.62
178.846	6925.57
181.739	11485.7
184.632	14490.2
187.524	15803.2
190.417	16296
193.31	16401.2
196.203	15786.9
199.095	14484.4
201.988	12426.7
204.881	10938.5
207.773	9763.39
210.666	9317.04
213.559	5733.61
216.451	3314.22
219.344	2585.19
222.237	2538.29
225.13	2419.78
228.022	2240.47
230.915	2031.82
233.808	3148.55
236.7	5479.27
239.593	8758.42
242.486	12560.5
245.378	16694.3
248.271	8757.12
251.164	3301.35
254.056	147.383
256.949	1367.54
259.842	2154.64
262.735	1853.05
265.627	889.658
268.52	1064.13
271.413	4307.38
274.305	9623.78
277.198	16452.1
280.091	19249.8
282.983	19187.4
285.876	21275.4
288.769	24722.4
291.662	29249.6
294.554	36164.7
297.447	43732.1
300.34	49512.6
303.232	48195.4
306.125	40499.7
309.018	33128.7
311.911	29449.5
314.803	29660.4
317.696	32311.5
320.589	34029.8
323.481	35704.2
326.374	37099.4
329.267	36039.6
332.159	31915
335.052	27758.9
337.945	25349.4
340.837	24021.2
343.73	21797.7
346.623	19560
349.516	18228.8
352.408	16618.5
355.301	14339.8
358.194	11591.1
361.086	10251.2
363.979	10717
366.872	12721
369.764	15965.2
372.657	17685.2
375.55	18759.9
378.442	19383.8
381.335	20395.5
384.228	22346.1
387.121	24569
390.013	26323.1
392.906	25586.1
395.799	22745.8
398.691	18780.7
401.584	15232
404.477	12828.2
407.37	10498.5
410.262	8064.21
413.155	5812.8
416.048	3776.61
418.94	2470.41
421.833	1720.45
424.726	1205.96
427.618	347.791
430.511	614.908
433.404	935.053
436.296	924.93
439.189	598.949
442.082	125.041
444.975	655.264
447.867	777.148
450.76	626.871
453.653	75.2402
456.545	564.441
459.438	1525.31
462.331	2463.81
465.224	3218.98
468.116	4008
471.009	4619.6
473.902	5080.72
476.794	5482.12
479.687	5990.95
482.58	6774.76
485.472	7604.23
488.365	8704.42
491.258	9745.38
494.151	10576.1
497.043	11201.8
499.936	11984.9
502.829	12207.6
505.721	12207.1
508.614	11942
511.507	11493.4
514.399	10802.3
517.292	9922.11
520.185	8527.74
523.077	6931.05
525.97	5527.88
528.863	4399.21
531.756	3229.98
534.648	2173.73
537.541	1576.64
540.434	1061.12
543.326	805.363
546.219	545.721
549.112	607.057
552.004	1039.77
554.897	1716
557.79	2665.34
560.683	3707.86
563.575	4636.88
566.468	5242.95
569.361	5545.66
572.253	5450.25
575.146	5158.88
578.039	5029.58
580.931	5031.97
583.824	4700.76
586.717	4654.44
589.61	4243.21
592.502	3902.3
595.395	3479.69
598.288	3106.53
601.18	2816.05
604.073	3325.48
606.966	4566.94
609.858	6190.54
612.751	4387.47
615.644	1814.39
618.537	479.44
621.429	335.74
624.322	240.027
627.215	574.793
630.107	476.715
633	291.335
635.893	459.089
638.785	371.966
641.678	204.362
644.571	63.2129
647.463	326.519
650.356	460.316
653.249	698.852
656.141	932.235
659.034	946.347
661.927	1181.09
664.82	1379.59
667.712	1609.29
670.605	2107.79
673.498	2706.91
676.39	3064.59
679.283	3445.16
682.176	3595
685.068	3704.98
687.961	3673.34
690.854	3541.51
693.747	3525.06
696.639	3640.44
699.532	3733.99
702.425	4090.51
705.317	4085.95
708.21	4375.03
711.103	4532.49
713.995	4819.57
716.888	5041.86
719.781	5632.02
722.674	6047.41
725.566	6493.34
728.459	6869.86
731.352	7038.23
734.244	6439.39
737.137	5192.97
740.03	3617.44
742.923	2233.43
745.815	1133
748.708	373.632
751.601	45.6074
754.493	119.047
757.386	142.584
760.279	40.2578
763.171	304.402
766.064	496.924
768.957	895.679
771.85	1274.68
774.742	1726.78
777.635	2381.91
780.528	3006.43
783.42	3740.75
786.313	4093.48
789.206	4320.02
792.098	4312.77
794.991	4488.47
797.884	4591.59
800.776	4841.17
803.669	5347.75
806.562	5598.73
809.455	5750.09
812.347	5391.97
815.24	4860.02
818.133	4103.57
821.025	3358.91
823.918	2707.8
826.811	2081.84
829.703	1709.88
832.596	1600.54
835.489	1687.92
838.381	1637.98
841.274	1900.22
844.167	1890.71
847.06	1753.34
849.952	1373.35
852.845	829.378
855.738	321.185
858.63	3.49414
861.523	280.463
864.416	427.957
867.308	365.212
870.201	351.358
873.094	251.465
875.987	54.8887
878.879	5.71973
881.772	211.406
884.665	448.111
887.557	518.832
890.45	656.895
893.343	720.395
896.236	1028.41
899.128	1114.04
902.021	1424.54
904.914	1473.08
907.806	1710.13
910.699	1917.06
913.592	2271.58
916.484	2852.01
919.377	3337.5
922.27	3692.99
925.163	3967.18
928.055	4034.16
930.948	3637.16
933.841	3474.64
936.733	3185.24
939.626	2933.43
942.519	2536.64
945.411	2273.64
948.304	1962.51
951.197	1859.07
954.09	1854.49
956.982	1811.51
959.875	2044.13
962.768	2183.35
965.66	2359.14
968.553	2732.65
971.446	3198.87
974.338	3651.62
977.231	3878.37
980.124	4120.22
983.016	4593.9
985.909	4787.07
988.802	4949.48
991.694	5058.42
994.587	4964.44
997.48	4918.24
1000.37	4698.77
1003.26	4311.58
1006.16	4086.7
1009.05	3751.01
1011.94	3224.55
1014.84	2719.97
1017.73	2462.55
1020.62	2061.9
1023.51	1570.25
1026.41	1213.42
1029.3	898.33
1032.19	493.832
1035.09	205.977
1037.98	81.6133
1040.87	193.629
1043.76	192.699
1046.66	93.3633
1049.55	1040.88
1052.44	2838.03
1055.33	6348.72
1058.23	11106.5
1061.12	16627
1064.01	23494.3
1066.9	31458.2
1069.8	43427.1
1072.69	61510.6
1075.58	86293.2
1078.47	115475
1081.37	136970
1084.26	133617
1087.15	110386
1090.05	82624.1
1092.94	58633.8
1095.83	39431.5
1098.72	24186.2
1101.62	13470.8
1104.51	5766.86
1107.4	519.883
1110.3	3910.2
1113.19	7061.81
1116.08	8037.06
1118.97	6842.32
1121.87	2387.8
1124.76	4742.55
1127.65	14784.6
1130.54	30081
1133.44	49612.4
1136.33	74911.5
1139.22	106396
1142.12	146775
1145.01	197650
1147.9	260415
1150.79	325203
1153.69	380420
1156.58	407623
1159.47	408983
1162.36	399313
1165.26	387758
1168.15	365007
1171.04	324813
1173.93	277625
1176.83	239365
1179.72	218970
1182.61	213657
1185.51	218733
1188.4	227466
1191.29	233565
1194.18	227976
1197.08	208272
1199.97	175523
1202.86	145326
1205.75	123206
1208.65	113677
1211.54	112830
1214.43	119789
1217.33	131857
1220.22	147364
1223.11	164078
1226	179357
1228.9	188331
1231.79	216589
1234.68	238283
1237.57	258912
1240.47	292048
1243.36	333410
1246.25	308982
1249.14	209243
1252.04	120476
1254.93	64020.3
1257.82	28083.3
1260.71	7215.19
1263.61	4529.94
1266.5	5997.5
1269.39	4654.5
1272.29	21044.1
1275.18	34865.2
1278.07	20143.4
1280.96	20621.9
1283.86	36040.3
