Measurement: Raman, 785 nm, unoriented, Raman Data Processed
Mineral: Danielsite
Rruff sample: R070419
Ideal chemistry: (Cu,Ag)_14_HgS_8_
Locality: Coppin Pool, Western Australia, Australia
Source: Michael Scott
Description: Gray metallic microblebs associated with cerussite and quartz, author's specimen
Raman shift (cm-1)	intensity
202.507	0
205.4	11.4121
208.292	129.83
211.185	1.69336
214.078	8.78906
216.97	204.334
219.863	255.379
222.756	153.078
225.649	252.728
228.541	151.25
231.434	245.072
234.327	218.822
237.219	87.7539
240.112	249.379
243.005	360
245.897	318.815
248.79	199.982
251.683	237.031
254.576	276.18
257.468	358.361
260.361	278.639
263.254	300.121
266.146	420.293
269.039	311.627
271.932	259.348
274.824	396.062
277.717	261.428
280.61	332.475
283.502	296.103
286.395	336.918
289.288	342.824
292.181	271.695
295.073	97.2441
297.966	188.533
300.859	180.562
303.751	157.309
306.644	248.445
309.537	179.316
312.43	227.596
315.322	146.385
318.215	36.5293
321.108	37.293
324	115
326.893	111.397
329.786	125.99
332.678	160.565
335.571	112.732
338.464	109.705
341.356	27.5898
344.249	33.332
347.142	29.6875
350.035	117.537
352.927	46.7031
355.82	27.791
358.713	130.203
361.605	107.736
364.498	12.5996
367.391	95.2852
370.284	104.832
373.176	127.92
376.069	119.367
378.962	195.008
381.854	23.2422
384.747	46.1191
387.64	0.716797
390.532	19.3945
393.425	87.7773
396.318	3.16211
399.211	40.998
402.103	92.5527
404.996	98.4316
407.889	9.76758
410.781	23.7383
413.674	49.1934
416.567	210.166
419.459	102.82
422.352	164.531
425.245	129.344
428.137	0.513672
431.03	173.092
433.923	108.816
436.816	153.062
439.708	62.2227
442.601	124.023
445.494	180.391
448.386	99.7969
451.279	116.992
454.172	102.371
457.065	56.1211
459.957	153.787
462.85	205.559
465.743	152.803
468.635	159.684
471.528	227.529
474.421	155.562
477.313	19.3633
480.206	131.039
483.099	21.125
485.991	48.9355
488.884	259.379
491.777	209.57
494.67	208.758
497.562	180.039
500.455	91.8574
503.348	287.477
506.24	186.252
509.133	222.1
512.026	162.258
514.918	209.781
517.811	92.3242
520.704	243.793
523.597	29.3945
526.489	182.887
529.382	214.908
532.275	187.451
535.167	124.115
538.06	40.2051
540.953	206.606
543.846	51.6406
546.738	7.42969
549.631	94.0176
552.524	57.4492
555.416	107.793
558.309	62.041
561.202	120.205
564.094	148.143
566.987	89.0566
569.88	146.928
572.773	19.7461
575.665	140.236
578.558	67.2852
581.451	167.109
584.343	166.131
587.236	13.7969
590.129	205.289
593.021	58.0293
595.914	68.7695
598.807	107.43
601.699	68.4199
604.592	138.998
607.485	115.992
610.378	170.603
613.27	36.7773
616.163	17.0645
619.056	110.67
621.948	91.7461
624.841	49.7891
627.734	146.178
630.626	138.748
633.519	8.01562
636.412	20.3145
639.305	166.555
642.197	16.0332
645.09	87.2363
647.983	23.9785
650.875	46.3945
653.768	68.5156
656.661	131.926
659.553	89.9668
662.446	109.285
665.339	123.852
668.232	111.602
671.124	149.473
674.017	70.0137
676.91	267.434
679.802	69.4004
682.695	76.9102
685.588	196.307
688.481	149.125
691.373	47.4062
694.266	160.549
697.159	243.545
700.051	98.1094
702.944	149.324
705.837	306.887
708.729	210.504
711.622	53.8984
714.515	198.91
717.408	146.644
720.3	89.3828
723.193	129.199
726.086	194.551
728.978	170.188
731.871	5.19922
734.764	75.6094
737.656	71.0586
740.549	221.488
743.442	103.492
746.335	111.34
749.227	148.277
752.12	53.8164
755.013	233.883
757.905	141.34
760.798	198.336
763.691	114.488
766.583	22.6289
769.476	145.231
772.369	85.5742
775.261	127.199
778.154	55.5195
781.047	34.0977
783.94	160.894
786.832	183.227
789.725	98.0664
792.618	109.488
795.51	123.414
798.403	65.7031
801.296	143.562
804.188	122.336
807.081	116.344
809.974	63.793
812.867	92.3242
815.759	53.0586
818.652	148.973
821.545	56.9844
824.437	131.969
827.33	168.91
830.223	173.297
833.115	45.5859
836.008	132.137
838.901	180.234
841.794	224.18
844.686	218.609
847.579	180.742
850.472	51.1094
853.364	40.082
856.257	98.2188
859.15	95.9336
862.043	41.6289
864.935	52.5977
867.828	87.5977
870.721	83.4766
873.613	116.723
876.506	5.93359
879.399	31.1406
882.291	199.738
885.184	77.3086
888.077	139.148
890.97	96.9805
893.862	166.074
896.755	116.555
899.648	139.609
902.54	1.1875
905.433	262.09
908.326	80.2031
911.218	131.977
914.111	206.269
917.004	116.957
919.896	152.598
922.789	111.309
925.682	209.672
928.575	95.6289
931.467	41.6797
934.36	186.141
937.253	206.305
940.145	37.8516
943.038	99.3828
945.931	143.293
948.823	83.5586
951.716	89.4141
954.609	91.0938
957.502	171.75
960.394	121.672
963.287	15.9336
966.18	1.29688
969.072	49.75
971.965	81.5195
974.858	149.371
977.75	144.871
980.643	174.879
983.536	45.6797
986.429	123.188
989.321	66.957
992.214	32.418
995.107	55.7266
997.999	286.574
1000.89	72.0156
1003.78	148.453
1006.68	14.6055
1009.57	133.547
1012.46	170.684
1015.36	118.731
1018.25	136.102
1021.14	101.477
1024.03	111.637
1026.93	129.609
1029.82	10.9883
1032.71	63.1719
1035.6	141.969
1038.5	97.918
1041.39	61.6328
1044.28	136.723
1047.17	176.5
1050.07	29.3203
1052.96	85.75
1055.85	132.418
1058.75	154.836
1061.64	127.141
1064.53	46.9023
1067.42	153.051
1070.32	100.438
1073.21	146.113
1076.1	29.4258
1078.99	196
1081.89	130.285
1084.78	88.8906
1087.67	66.5039
1090.57	68.4844
1093.46	49.6328
1096.35	10.3711
1099.24	338.477
1102.14	87.293
1105.03	89.5078
1107.92	125.668
1110.82	79.832
1113.71	10.5586
1116.6	54.7344
1119.49	113.094
1122.38	224.898
1125.28	96.3672
1128.17	125.715
1131.06	158.094
1133.96	167.496
1136.85	155.227
1139.74	199.547
1142.63	150.906
1145.53	147.731
1148.42	187.676
1151.31	175.785
1154.2	202.363
1157.1	210.938
1159.99	198.543
1162.88	180.055
1165.78	31.5469
1168.67	37.332
1171.56	256.223
1174.45	66.3125
1177.35	138.828
1180.24	173.793
1183.13	65.1172
1186.03	83.5195
1188.92	0.695313
1191.81	165.047
1194.7	193.695
1197.6	181.492
1200.49	124.168
1203.38	69.3438
1206.27	140.016
1209.17	124.484
1212.06	139.762
1214.95	152.078
1217.85	203.781
1220.74	21.2578
