Measurement: Raman, 532 nm, unoriented, Raman Data Processed
Mineral: Davidite-(La)
Rruff sample: R070698
Ideal chemistry: La^3+^(Y^3+^,U^4+^)Fe^3+^_2_(Ti^4+^,Fe^3+^,Cr^3+^,V^5+^)_18_(O,OH,F)_38_
Locality: Pandora prospect, Covered Wells, Quijotoa District, Quijotoa Mts, Pima County, Arizona, USA
Source: Michael Scott
Description: Black submetallic massive
Measured chemistry: (La_0.48_Ce_0.35_Nd_0.03_Pr_0.01_Ca_0.13_)_∑=1.00_(U_0.32_Y_0.23_Sc_0.07_Ca_0.07_Th_0.05_)_∑=0.74_Fe_2_(Ti_12.42_Fe_4.24_Mg_0.29_Cr_0.25_Al_0.18_Zr_0.07_Mn_0.05_)_∑=17.50_O_38_
Raman shift (cm-1)	intensity
154.483	0
157.376	0.319824
160.268	14.0826
163.161	47.6761
166.054	29.4369
168.946	35.9069
171.839	23.2488
174.732	33.2309
177.625	24.841
180.517	25.4994
183.41	28.1261
186.303	26.4427
189.195	40.388
192.088	23.4528
194.981	21.3114
197.874	21.063
200.766	8.29907
203.659	26.0442
206.552	17.6625
209.444	15.5792
212.337	14.811
215.23	5.17133
218.122	26.3315
221.015	7.20129
223.908	17
226.8	3.99173
229.693	17.0929
232.586	30.6389
235.479	15.1154
238.371	13.1799
241.264	16.1869
244.157	2.34876
247.049	0.62619
249.942	2.67941
252.835	13.5331
255.727	21.3369
258.62	14.9552
261.513	27.9029
264.406	10.3645
267.298	13.2989
270.191	10.523
273.084	5.31143
275.976	7.94864
278.869	17.2443
281.762	8.07114
284.655	6.86063
287.547	18.9321
290.44	20.2004
293.333	4.08041
296.225	19.6221
299.118	8.28861
302.011	8.25381
304.904	9.84003
307.796	19.8231
310.689	23.8661
313.582	23.8544
316.474	22.2284
319.367	16.5027
322.26	26.6406
325.152	16.1215
328.045	35.6618
330.938	17.2551
333.83	12.3816
336.723	6.45782
339.616	6.46634
342.509	8.55057
345.401	13.028
348.294	20.595
351.187	11.7211
354.079	22.8903
356.972	1.90997
359.865	5.05048
362.757	8.74567
365.65	14.1892
368.543	9.80768
371.436	7.82291
374.328	16.4123
377.221	7.26367
380.114	12.0178
383.006	12.0563
385.899	2.92099
388.792	18.0147
391.685	20.1225
394.577	17.6673
397.47	15.1004
400.363	14.286
403.255	12.7066
406.148	22.5083
409.041	4.65762
411.933	15.873
414.826	26.2788
417.719	10.8322
420.611	6.13736
423.504	1.79318
426.397	9.81216
429.29	11.8209
432.182	23.7107
435.075	19.3119
437.968	8.70984
440.86	15.4875
443.753	7.81448
446.646	12.071
449.538	29.3957
452.431	8.60614
455.324	14.5486
458.217	16.7051
461.109	27.4547
464.002	25.8486
466.895	17.0734
469.787	6.65536
472.68	22.4246
475.573	22.4463
478.466	33.9237
481.358	12.5565
484.251	16.2181
487.144	16.3678
490.036	27.0089
492.929	4.43072
495.822	18.4696
498.714	3.77365
501.607	15.2075
504.5	1.41772
507.393	15.3913
510.285	12.5737
513.178	28.7055
516.071	5.48413
518.963	20.8389
521.856	10.9716
524.749	22.6771
527.641	16.2562
530.534	24.6457
533.427	25.425
536.32	20.6325
539.212	18.3728
542.105	3.5112
544.998	36.5011
547.89	17.6155
550.783	5.94278
553.676	12.5419
556.568	31.3756
559.461	21.0268
562.354	22.2108
565.247	17.7725
568.139	31.9449
571.032	11.9238
573.925	11.9401
576.817	8.85803
579.71	25.7935
582.603	6.8432
585.495	26.0927
588.388	29.8168
591.281	19.9326
594.174	9.85898
597.066	21.1601
599.959	25.4768
602.852	18.0143
605.744	8.40002
608.637	9.43118
611.53	17.5951
614.423	8.13589
617.315	2.13397
620.208	6.06372
623.101	2.97595
625.993	10.4536
628.886	25.8981
631.779	27.6396
634.671	10.585
637.564	3.7995
640.457	1.96118
643.35	11.4331
646.242	42.9089
649.135	21.273
652.028	4.65863
654.92	29.5514
657.813	7.27353
660.706	3.98669
663.598	7.68631
666.491	7.05322
669.384	11.8206
672.277	15.641
675.169	17.1127
678.062	30.8727
680.955	1.1546
683.847	0.996399
686.74	23.7237
689.633	18.8539
692.525	32.2923
695.418	31.5579
698.311	42.2609
701.204	7.13916
704.096	19.7122
706.989	29.7429
709.882	7.3429
712.774	5.98425
715.667	30.0193
718.56	12.2672
721.452	9.48602
724.345	18.946
727.238	21.5771
730.131	31.3082
733.023	10.0126
735.916	4.33203
738.809	11.4755
741.701	22.0597
744.594	29.1677
747.487	21.4087
750.38	8.95447
753.272	14.9185
756.165	39.7489
759.058	8.96558
761.95	8.15662
764.843	14.2125
767.736	19.9231
770.628	27.0872
773.521	23.5947
776.414	23.712
779.307	30.9914
782.199	9.80206
785.092	11.3219
787.985	16.7358
790.877	22.7931
793.77	32.6233
796.663	20.4147
799.555	23.3198
802.448	7.85129
805.341	14.3217
808.234	8.61762
811.126	5.38873
814.019	2.67166
816.912	14.2804
819.804	1.12051
822.697	20.4595
825.59	35.8738
828.482	15.2778
831.375	7.10889
834.268	3.69263
837.16	9.64133
840.053	6.31592
842.946	23.8382
845.839	7.59491
848.731	6.73874
851.624	19.9822
854.517	1.67331
857.409	0.634888
860.302	12.3082
863.195	3.91049
866.087	10.0501
868.98	0.964966
871.873	24.1889
874.766	10.9214
877.658	14.072
880.551	14.6831
883.444	18.3977
886.337	1.94882
889.229	6.90964
892.122	4.5083
895.015	9.55432
897.907	18.4609
900.8	4.49777
903.693	5.18381
906.585	11.7118
909.478	22.1803
912.371	18.1035
915.264	20.525
918.156	15.6023
921.049	13.7186
923.942	29.5728
926.834	21.351
929.727	20.0165
932.62	27.1755
935.512	14.7336
938.405	14.072
941.298	22.2768
944.191	5.03244
947.083	20.5859
949.976	5.28018
952.869	25.4178
955.761	40.256
958.654	18.4388
961.547	3.32581
964.439	10.4021
967.332	2.58417
970.225	8.58191
973.117	9.75134
976.01	6.41159
978.903	23.4571
981.796	5.10394
984.688	12.4631
987.581	23.1714
990.474	27.242
993.366	14.7813
996.259	16.2864
999.152	15.7623
1002.04	14.5275
1004.94	13.6303
1007.83	9.73685
1010.72	5.69696
1013.62	17.9748
1016.51	21.9026
1019.4	18.7283
1022.29	5.98511
1025.19	31.1196
1028.08	9.24765
1030.97	7.38953
1033.86	0.463165
1036.76	7.71802
1039.65	4.54779
1042.54	22.5091
1045.43	6.58789
1048.33	26.6412
1051.22	13.2095
1054.11	13.6334
1057.01	13.2184
1059.9	7.6503
1062.79	27.3107
1065.68	20.5267
1068.58	18.3536
1071.47	10.9508
1074.36	13.0254
1077.26	5.5976
1080.15	20.3058
1083.04	32.4928
1085.93	32.6853
1088.83	9.01483
1091.72	5.69623
1094.61	9.97311
1097.5	11.3824
1100.4	17.1077
1103.29	16.149
1106.18	23.4921
1109.07	5.45523
1111.97	23.0162
1114.86	15.9237
1117.75	15.6353
1120.64	22.5796
1123.54	4.14136
1126.43	11.5564
1129.32	18.2617
1132.22	3.24722
1135.11	11.7187
1138	1.67169
1140.89	11.5052
1143.79	14.9757
1146.68	0.14978
1149.57	24.5647
1152.46	19.013
1155.36	12.4027
1158.25	18.9398
1161.14	10.6433
1164.04	19.3355
1166.93	14.6876
1169.82	24.3965
1172.71	17.0677
1175.61	3.85831
1178.5	31.1882
1181.39	29.479
1184.29	19.5927
1187.18	31.2762
1190.07	9.45331
1192.96	12.1653
1195.86	14.451
1198.75	34.2989
1201.64	13.6852
1204.53	31.5622
1207.43	36.426
1210.32	11.6303
1213.21	10.1138
1216.1	16.2505
1219	11.4123
1221.89	19.7219
1224.78	11.8237
1227.67	16.326
1230.57	10.4257
1233.46	5.01816
1236.35	7.21008
1239.25	5.48657
1242.14	5.04059
1245.03	9.39999
1247.92	15.9453
1250.82	16.8023
1253.71	2.84354
1256.6	12.9221
1259.49	34.8186
1262.39	14.9826
1265.28	3.97406
1268.17	6.57873
1271.07	24.9861
1273.96	4.76517
1276.85	24.114
1279.74	2.93408
1282.64	22.2129
1285.53	33.4544
1288.42	6.39963
1291.32	25.0344
1294.21	19.0706
1297.1	8.5076
1299.99	16.9763
