Measurement: Raman, 785 nm, unoriented, Raman Data Processed
Mineral: Davidite-(La)
Rruff sample: R070697
Ideal chemistry: La^3+^(Y^3+^,U^4+^)Fe^3+^_2_(Ti^4+^,Fe^3+^,Cr^3+^,V^5+^)_18_(O,OH,F)_38_
Locality: Pandora prospect, Covered Wells, Quijotoa District, Quijotoa Mts, Pima County, Arizona, USA
Source: Michael Scott
Description: Small black fragments embedded in epoxy
Raman shift (cm-1)	intensity
159.107	0
161.999	106.733
164.892	134.329
167.785	129.134
170.677	94.0831
173.57	101.321
176.463	65.2635
179.356	38.3879
182.248	2.97534
185.141	40.0746
188.034	67.1491
190.926	60.2499
193.819	18.1495
196.712	90.9535
199.604	37.596
202.497	38.1984
205.39	35.4342
208.282	20.8595
211.175	6.7782
214.068	5.95996
216.961	7.25427
219.853	3.63965
222.746	42.3301
225.639	3.33325
228.531	13.2615
231.424	3.16638
234.317	5.19714
237.209	23.0111
240.102	38.1105
242.995	28.7505
245.888	29.6002
248.78	21.5071
251.673	40.1921
254.566	44.3501
257.458	39.8073
260.351	51.446
263.244	35.3137
266.137	26.2648
269.029	66.1161
271.922	40.5198
274.815	11.6981
277.707	15.7602
280.6	36.8193
283.493	32.6556
286.385	23.1615
289.278	33.7262
292.171	36.5977
295.063	13.3239
297.956	2.2572
300.849	20.5884
303.742	15.2023
306.634	28.5708
309.527	28.0446
312.42	18.4772
315.312	22.238
318.205	46.5083
321.098	32.2903
323.99	22.2869
326.883	15.8124
329.776	13.9491
332.669	16.3705
335.561	28.8529
338.454	0.712891
341.347	24.5874
344.239	8.24121
347.132	35.9888
350.025	6.2594
352.918	35.2981
355.81	10.4647
358.703	19.5559
361.596	16.0007
364.488	4.36047
367.381	27.8426
370.274	16.1896
373.166	6.2782
376.059	26.3945
378.952	28.0638
381.844	35.0595
384.737	29.8098
387.63	20.2151
390.523	21.0382
393.415	38.0652
396.308	37.327
399.201	11.3482
402.093	30.7324
404.986	2.65527
407.879	15.7737
410.772	0.786133
413.664	39.8997
416.557	29.5983
419.45	22.0009
422.342	3.83051
425.235	18.4056
428.128	7.33368
431.02	0.26123
433.913	15.0021
436.806	11.9307
439.699	2.49915
442.591	12.2307
445.484	29.5172
448.377	19.6457
451.269	9.65564
454.162	30.3963
457.055	1.37384
459.947	0.548401
462.84	16.8702
465.733	28.2267
468.625	18.0933
471.518	22.2962
474.411	23.2645
477.304	1.48535
480.196	3.98096
483.089	29.1915
485.982	7.88745
488.874	12.8462
491.767	11.8279
494.66	6.24261
497.553	27.0376
500.445	15.8847
503.338	21.7159
506.231	19.0112
509.123	22.7268
512.016	17.8955
514.909	1.68097
517.802	4.10608
520.694	11.4005
523.587	24.5487
526.48	32.081
529.372	4.32373
532.265	0.88678
535.158	29.8482
538.05	8.88055
540.943	30.5154
543.836	40.246
546.729	35.4853
549.621	2.45581
552.514	20.1816
555.407	41.8985
558.299	27.8471
561.192	14.4443
564.085	5.0744
566.977	1.61725
569.87	10.0341
572.763	11.7591
575.655	6.74982
578.548	25.3895
581.441	23.9064
584.333	38.177
587.226	46.647
590.119	7.47357
593.012	6.94995
595.904	23.7484
598.797	0.695374
601.69	3.50903
604.582	2.21564
607.475	10.5578
610.368	17.2405
613.26	25.4302
616.153	32.4229
619.046	25.9871
621.939	38.3776
624.831	26.4604
627.724	60.1301
630.617	45.2923
633.509	39.5942
636.402	41.9854
639.295	39.5749
642.188	37.6277
645.08	44.231
647.973	15.3062
650.866	15.6065
653.758	30.6681
656.651	31.0371
659.544	19.0748
662.436	16.8367
665.329	7.54443
668.222	25.6685
671.115	25.2965
674.007	6.04034
676.9	31.8185
679.793	3.52319
682.685	20.6501
685.578	17.9135
688.471	26.9107
691.363	22.6686
694.256	31.3396
697.149	31.0081
700.042	9.36536
702.934	69.6215
705.827	39.9575
708.72	31.0407
711.612	41.4965
714.505	3.28729
717.398	25.0501
720.29	21.7254
723.183	21.7216
726.076	7.06079
728.968	19.3442
731.861	33.0895
734.754	12.7195
737.647	20.1542
740.539	22.2016
743.432	31.5981
746.325	28.3215
749.217	20.7976
752.11	31.1057
755.003	18.9316
757.895	7.51849
760.788	9.81726
763.681	20.8787
766.574	11.2405
769.466	30.204
772.359	0.56897
775.252	17.903
778.144	23.5442
781.037	15.9598
783.93	7.43292
786.822	33.8954
789.715	24.1466
792.608	27.4786
795.501	30.0812
798.393	14.4197
801.286	1.93555
804.179	23.5076
807.071	2.09955
809.964	28.6858
812.857	30.5579
815.75	17.6683
818.642	51.2459
821.535	17.9915
824.428	23.1871
827.32	8.56409
830.213	14.0557
833.106	20.9736
835.998	27.0035
838.891	26.3775
841.784	6.81598
844.677	14.9187
847.569	14.9606
850.462	2.56567
853.355	10.0303
856.247	7.7514
859.14	34.4603
862.033	26.4661
864.925	12.6602
867.818	10.0068
870.711	5.2204
873.604	27.0614
876.496	2.08368
879.389	13.9137
882.282	15.2724
885.174	20.3368
888.067	20.6771
890.96	7.80753
893.852	9.94925
896.745	32.9312
899.638	28.8234
902.53	6.13419
905.423	20.7631
908.316	29.4843
911.209	20.8634
914.101	37.1278
916.994	24.4008
919.887	26.675
922.779	31.7071
925.672	19.8271
928.565	14.5196
931.457	11.5511
934.35	11.2741
937.243	27.1685
940.136	0.065521
943.028	35.4744
945.921	6.57919
948.814	16.6612
951.706	15.0387
954.599	18.9633
957.492	25.8448
960.385	12.1382
963.277	1.06097
966.17	2.43286
969.063	13.3225
971.955	24.9286
974.848	14.8509
977.741	24.8648
980.633	25.3416
983.526	23.8929
986.419	15.3768
989.312	8.42105
992.204	17.0861
995.097	5.43329
997.99	23.1558
1000.88	16.14
1003.77	18.7072
1006.67	16.4813
1009.56	9.21661
1012.45	1.21039
1015.35	1.37616
1018.24	13.7349
1021.13	20.4593
1024.02	26.5355
1026.92	2.83951
1029.81	17.8097
1032.7	35.0332
1035.6	23.6288
1038.49	11.2546
1041.38	3.98846
1044.27	23.4041
1047.17	10.3874
1050.06	15.7788
1052.95	18.2812
1055.84	11.6695
1058.74	38.5394
1061.63	20.9946
1064.52	5.26569
1067.41	0.657074
1070.31	25.3088
1073.2	19.3886
1076.09	9.81543
1078.98	2.22583
1081.88	22.6708
1084.77	26.7353
1087.66	8.78586
1090.56	28.7146
1093.45	30.6199
1096.34	14.7201
1099.23	16.1013
1102.13	18.4861
1105.02	4.46988
1107.91	22.9377
1110.81	22.185
1113.7	0.9552
1116.59	28.8084
1119.48	25.2542
1122.38	13.4388
1125.27	12.5024
1128.16	15.0371
1131.05	21.2263
1133.95	9.36453
1136.84	9.44174
1139.73	5.21957
1142.62	23.6258
1145.52	22.1828
1148.41	2.93811
1151.3	5.50171
1154.19	1.53497
1157.09	13.0893
1159.98	25.6017
1162.87	10.9558
1165.77	25.7508
1168.66	25.986
1171.55	20.4484
1174.44	16.3996
1177.34	16.2992
1180.23	12.7469
1183.12	26.04
1186.02	10.1471
1188.91	14.6034
1191.8	17.8571
1194.69	3.51819
1197.59	18.9345
1200.48	16.6273
1203.37	29.4217
1206.26	24.0998
1209.16	19.0371
1212.05	25.1239
1214.94	13.1085
1217.84	7.5502
1220.73	0.14624
1223.62	28.9557
1226.51	21.7044
1229.41	10.7575
1232.3	0.233032
1235.19	0
