Measurement: Raman, 532 nm, unoriented, Raman Data Processed
Mineral: Davidite-(La)
Rruff sample: R070697
Ideal chemistry: La^3+^(Y^3+^,U^4+^)Fe^3+^_2_(Ti^4+^,Fe^3+^,Cr^3+^,V^5+^)_18_(O,OH,F)_38_
Locality: Pandora prospect, Covered Wells, Quijotoa District, Quijotoa Mts, Pima County, Arizona, USA
Source: Michael Scott
Description: Small black fragments embedded in epoxy
Raman shift (cm-1)	intensity
158.822	0
161.715	6.54627
164.607	10.9192
167.5	13.3959
170.393	53.6913
173.286	31.8458
176.178	39.7942
179.071	23.9041
181.964	52.0946
184.856	16.0552
187.749	63.2446
190.642	60.5535
193.535	37.8015
196.427	43.1433
199.32	58.2623
202.213	93.3389
205.105	41.6692
207.998	17.172
210.891	8.72119
213.783	11.5764
216.676	21.1831
219.569	15.9188
222.462	36.2156
225.354	35.7144
228.247	1.69458
231.14	29.0551
234.032	29.6708
236.925	5.80652
239.818	46.1084
242.71	7.5824
245.603	22.8447
248.496	28.3254
251.388	61.022
254.281	67.5813
257.174	9.15771
260.067	36.1533
262.959	29.9258
265.852	78.3402
268.745	50.7605
271.637	67.1388
274.53	38.3462
277.423	24.2634
280.315	48.8447
283.208	30.7455
286.101	46.7743
288.994	57.6234
291.886	22.0902
294.779	43.9532
297.672	45.6912
300.564	40.8297
303.457	49.1416
306.35	44.55
309.243	41.7058
312.135	22.679
315.028	20.077
317.921	19.3762
320.813	46.3276
323.706	28.8439
326.599	3.02185
329.491	15.4895
332.384	19.2107
335.277	6.37988
338.17	9.41418
341.062	6.82031
343.955	35.6528
346.848	54.9773
349.74	15.3414
352.633	4.38025
355.526	40.6362
358.418	11.1392
361.311	20.2169
364.204	15.8049
367.097	20.0078
369.989	46.0632
372.882	41.3229
375.775	4.39551
378.667	50.3024
381.56	29.8362
384.453	12.7417
387.346	23.8473
390.238	47.8417
393.131	2.70557
396.024	12.9634
398.916	10.6749
401.809	4.42664
404.702	14.2479
407.594	31.9069
410.487	52.3614
413.38	55.7499
416.272	12.8861
419.165	0.786865
422.058	52.6691
424.951	31.3876
427.843	43.5343
430.736	52.4442
433.629	68.2848
436.521	53.9817
439.414	17.3455
442.307	39.9145
445.2	48.4106
448.092	14.7092
450.985	19.0542
453.878	29.594
456.77	35.6465
459.663	24.3268
462.556	4.95068
465.448	0.37207
468.341	46.8535
471.234	41.9584
474.127	7.80127
477.019	48.2261
479.912	0.310303
482.805	31.0602
485.697	12.1805
488.59	2.92896
491.483	10.6284
494.375	4.59656
497.268	42.9438
500.161	18.3957
503.053	35.0413
505.946	9.22644
508.839	32.2344
511.732	3.2804
514.624	51.8997
517.517	89.46
520.41	27.0349
523.302	5.86877
526.195	12.9651
529.088	20.5067
531.981	27.1655
534.873	28.2147
537.766	22.0461
540.659	23.8229
543.551	16.9111
546.444	64.5372
549.337	45.814
552.229	26.2589
555.122	37.609
558.015	20.6509
560.908	47.2639
563.8	50.7153
566.693	18.5084
569.586	24.246
572.478	32.1755
575.371	40.6103
578.264	36.2913
581.156	21.0394
584.049	23.8688
586.942	50.2909
589.835	28.3209
592.727	36.406
595.62	53.1254
598.513	52.3256
601.405	24.2941
604.298	57.3184
607.191	48.1183
610.083	43.3783
612.976	34.4946
615.869	31.7937
618.762	18.6787
621.654	7.7041
624.547	21.7002
627.44	32.734
630.332	20.804
633.225	27.1819
636.118	12.4322
639.01	34.8629
641.903	38.5662
644.796	5.02893
647.689	18.2383
650.581	22.3298
653.474	33.0756
656.367	22.6587
659.259	11.2321
662.152	11.9094
665.045	10.1591
667.938	26.3625
670.83	14.2094
673.723	34.9287
676.616	31.4305
679.508	42.1418
682.401	37.9719
685.294	18.537
688.186	25.2876
691.079	57.7334
693.972	18.6931
696.865	25.8773
699.757	46.9169
702.65	17.1835
705.543	18.0729
708.435	22.3317
711.328	85.7253
714.221	45.0723
717.113	60.6196
720.006	45.9735
722.899	71.9442
725.792	61.3345
728.684	39.1814
731.577	29.2939
734.47	22.9718
737.362	65.3163
740.255	50.4779
743.148	34.7504
746.04	31.7557
748.933	61.3309
751.826	57.0082
754.719	61.51
757.611	52.831
760.504	91.6269
763.397	38.419
766.289	39.4286
769.182	90.585
772.075	72.738
774.967	51.1675
777.86	46.181
780.753	42.8907
783.646	44.2801
786.538	63.4009
789.431	78.3751
792.324	48.8473
795.216	55.2875
798.109	55.7883
801.002	80.073
803.894	54.6442
806.787	76.8159
809.68	51.3718
812.573	58.1951
815.465	46.8518
818.358	42.0825
821.251	46.9766
824.143	20.1238
827.036	16.5605
829.929	22.1849
832.822	22.4185
835.714	45.131
838.607	26.2584
841.5	18.2723
844.392	49.9791
847.285	15.9531
850.178	34.7868
853.07	18.7424
855.963	11.82
858.856	8.12878
861.749	31.6853
864.641	23.9397
867.534	13.174
870.427	8.49823
873.319	25.1019
876.212	9.23852
879.105	15.5849
881.997	8.59137
884.89	13.7064
887.783	20.481
890.676	5.78668
893.568	18.383
896.461	29.9752
899.354	29.8308
902.246	1.4118
905.139	10.9932
908.032	42.1629
910.924	41.0145
913.817	33.2987
916.71	20.8613
919.602	23.601
922.495	46.829
925.388	28.491
928.281	65.6656
931.173	42.6952
934.066	28.3297
936.959	33.0821
939.851	30.5615
942.744	48.481
945.637	35.6596
948.529	35.6759
951.422	22.1398
954.315	34.0804
957.208	25.9585
960.1	45.876
962.993	50.5389
965.886	34.5037
968.778	21.2153
971.671	25.6855
974.564	28.889
977.457	10.7905
980.349	20.7572
983.242	30.315
986.135	43.9897
989.027	27.8104
991.92	21.0759
994.813	24.4952
997.705	18.4159
1000.6	47.102
1003.49	19.7702
1006.38	51.6765
1009.28	8.80585
1012.17	13.4316
1015.06	34.8514
1017.95	49.3619
1020.85	20.3297
1023.74	6.27576
1026.63	17.1102
1029.53	16.7254
1032.42	17.937
1035.31	47.377
1038.2	23.514
1041.1	20.3083
1043.99	21.4486
1046.88	57.8791
1049.77	33.8496
1052.67	22.3045
1055.56	54.2596
1058.45	3.00671
1061.35	41.33
1064.24	25.6918
1067.13	5.19061
1070.02	13.7741
1072.92	27.2124
1075.81	10.7866
1078.7	35.8041
1081.59	15.9686
1084.49	33.0304
1087.38	30.1951
1090.27	30.7037
1093.16	5.58112
1096.06	33.3616
1098.95	26.5068
1101.84	34.4072
1104.73	23.2333
1107.63	12.9758
1110.52	29.098
1113.41	33.852
1116.31	17.3576
1119.2	38.6146
1122.09	24.6822
1124.98	31.5497
1127.88	20.1793
1130.77	34.941
1133.66	6.79541
1136.56	35.1949
1139.45	28.1802
1142.34	12.7697
1145.23	28.8268
1148.13	23.2714
1151.02	8.01276
1153.91	13.3274
1156.8	39.4843
1159.7	2.42847
1162.59	8.76453
1165.48	5.57709
1168.38	15.7329
1171.27	42.5056
1174.16	22.7371
1177.05	10.612
1179.95	31.7841
1182.84	21.0956
1185.73	45.1592
1188.62	24.25
1191.52	18.0787
1194.41	30.9269
1197.3	34.532
1200.19	41.1199
1203.09	21.8177
1205.98	23.3805
1208.87	7.89178
1211.77	48.8115
1214.66	29.562
1217.55	7.97485
1220.44	29.1089
1223.34	14.2506
1226.23	18.8064
1229.12	19.7587
1232.01	34.9727
1234.91	15.9883
1237.8	43.5014
1240.69	7.70178
1243.59	20.0848
1246.48	32.7165
1249.37	26.3304
1252.26	11.2999
1255.16	37.363
1258.05	8.87976
1260.94	53.4392
1263.83	48.3663
1266.73	54.7151
1269.62	14.553
1272.51	43.371
1275.4	34.8029
1278.3	25.884
1281.19	61.1101
1284.08	26.5744
1286.98	44.597
1289.87	7.80475
1292.76	18.8505
1295.65	13.4479
1298.55	24.7803
