Measurement: Raman, 785 nm, unoriented, Raman Data Processed
Mineral: Davidite-(La)
Rruff sample: R070698
Ideal chemistry: La^3+^(Y^3+^,U^4+^)Fe^3+^_2_(Ti^4+^,Fe^3+^,Cr^3+^,V^5+^)_18_(O,OH,F)_38_
Locality: Pandora prospect, Covered Wells, Quijotoa District, Quijotoa Mts, Pima County, Arizona, USA
Source: Michael Scott
Description: Black submetallic massive
Measured chemistry: (La_0.48_Ce_0.35_Nd_0.03_Pr_0.01_Ca_0.13_)_∑=1.00_(U_0.32_Y_0.23_Sc_0.07_Ca_0.07_Th_0.05_)_∑=0.74_Fe_2_(Ti_12.42_Fe_4.24_Mg_0.29_Cr_0.25_Al_0.18_Zr_0.07_Mn_0.05_)_∑=17.50_O_38_
Raman shift (cm-1)	intensity
157.178	0
160.071	0.074448
162.964	62.5028
165.856	34.3644
168.749	58.3835
171.642	23.4702
174.534	29.5181
177.427	21.9098
180.32	17.255
183.212	35.2457
186.105	61.5125
188.998	14.8159
191.891	15.943
194.783	20.2299
197.676	38.3699
200.569	2.72013
203.461	62.3361
206.354	29.635
209.247	22.558
212.139	6.34951
215.032	8.32727
217.925	15.8452
220.818	0.624356
223.71	17.5358
226.603	18.1084
229.496	18.0731
232.388	15.2851
235.281	26.329
238.174	58.1554
241.066	16.8512
243.959	40.2689
246.852	21.5824
249.745	34.3198
252.637	19.7061
255.53	15.8838
258.423	23.1763
261.315	25.8739
264.208	21.2892
267.101	25.8238
269.993	24.3975
272.886	37.7467
275.779	21.361
278.672	34.7943
281.564	12.9583
284.457	22.003
287.35	16.2941
290.242	39.1659
293.135	12.4037
296.028	11.7069
298.921	14.5258
301.813	17.6195
304.706	24.1254
307.599	17.6154
310.491	22.0889
313.384	45.133
316.277	0.040149
319.169	13.3918
322.062	20.7959
324.955	27.6702
327.847	16.2634
330.74	24.4514
333.633	34.1086
336.526	22.5987
339.418	29.3926
342.311	21.9455
345.204	3.94526
348.096	3.03527
350.989	12.7046
353.882	25.0764
356.774	37.7048
359.667	39.4508
362.56	3.48077
365.452	2.1668
368.345	18.2978
371.238	17.2814
374.131	6.35106
377.023	33.7516
379.916	9.90813
382.809	29.5067
385.701	10.1664
388.594	14.7186
391.487	1.85558
394.38	0.529418
397.272	4.75748
400.165	20.1592
403.058	4.42709
405.95	2.82059
408.843	32.0463
411.736	21.6533
414.628	30.6765
417.521	13.2041
420.414	2.17077
423.307	7.41941
426.199	12.205
429.092	2.74257
431.985	2.5681
434.877	18.19
437.77	15.5946
440.663	2.03083
443.555	1.97205
446.448	0.994272
449.341	16.817
452.234	8.86345
455.126	37.6892
458.019	17.3351
460.912	45.9607
463.804	1.25395
466.697	21.4859
469.59	9.77083
472.483	13.4463
475.375	23.6182
478.268	16.1014
481.161	6.07092
484.053	32.6503
486.946	20.1431
489.839	1.04778
492.731	38.1675
495.624	3.05867
498.517	14.8116
501.409	18.2599
504.302	3.20229
507.195	32.0788
510.088	27.2273
512.98	4.52912
515.873	13.782
518.766	14.7265
521.658	4.70473
524.551	54.5411
527.444	23.2851
530.337	2.16389
533.229	20.2837
536.122	24.664
539.015	9.13483
541.907	14.1073
544.8	1.64425
547.693	30.0563
550.585	6.31508
553.478	8.71799
556.371	6.31684
559.263	10.4063
562.156	12.6188
565.049	30.7631
567.942	18.2006
570.834	12.2067
573.727	9.3793
576.62	21.9009
579.512	15.0505
582.405	27.2478
585.298	8.70991
588.19	1.69028
591.083	20.7696
593.976	10.1774
596.869	18.2909
599.761	5.40896
602.654	18.0458
605.547	13.9832
608.439	12.3966
611.332	25.223
614.225	30.6426
617.117	21.3
620.01	45.7033
622.903	36.563
625.795	4.93904
628.688	31.1316
631.581	41.1936
634.474	32.0433
637.366	38.0344
640.259	39.372
643.152	13.0042
646.044	6.86983
648.937	26.155
651.83	32.8366
654.722	38.6017
657.615	18.75
660.508	36.9556
663.401	28.2548
666.293	13.5922
669.186	31.0195
672.079	30.7732
674.971	34.9092
677.864	18.958
680.757	0.071945
683.649	2.63548
686.542	2.55073
689.435	20.5307
692.328	12.527
695.22	18.6361
698.113	27.177
701.006	13.9926
703.898	2.17708
706.791	37.6203
709.684	2.76937
712.577	37.9712
715.469	2.07361
718.362	9.68321
721.255	5.11705
724.147	13.7673
727.04	17.7307
729.933	21.9317
732.825	32.8007
735.718	2.14322
738.611	24.904
741.504	11.6702
744.396	15.7343
747.289	11.3205
750.182	5.10847
753.074	11.3887
755.967	4.15718
758.86	12.9228
761.752	0.527027
764.645	11.7958
767.538	26.5953
770.431	0.525886
773.323	22.2727
776.216	22.91
779.109	0.140776
782.001	11.1536
784.894	8.35319
787.787	14.5082
790.679	13.368
793.572	5.09536
796.465	9.77924
799.357	1.59478
802.25	17.4744
805.143	28.245
808.036	25.1169
810.928	28.5709
813.821	1.83306
816.714	24.9944
819.606	27.9702
822.499	33.0969
825.392	29.6915
828.284	20.482
831.177	17.1605
834.07	35.2664
836.963	27.9595
839.855	19.5317
842.748	23.8179
845.641	13.0212
848.533	17.9735
851.426	22.4698
854.319	16.3536
857.212	2.66467
860.104	25.6062
862.997	1.47344
865.89	11.0643
868.782	11.4446
871.675	0.588738
874.568	10.2685
877.46	3.39043
880.353	11.4725
883.246	3.35647
886.139	20.01
889.031	8.72554
891.924	37.4566
894.817	32.3125
897.709	23.8614
900.602	35.5801
903.495	30.0214
906.388	1.48108
909.28	13.6739
912.173	21.6578
915.066	6.86126
917.958	17.4375
920.851	26.412
923.744	3.08797
926.636	9.43425
929.529	16.3788
932.422	24.8206
935.314	21.0894
938.207	16.8294
941.1	15.4873
943.993	28.4115
946.885	8.21827
949.778	10.7409
952.671	20.4887
955.563	16.6462
958.456	13.2149
961.349	16.4647
964.241	20.3079
967.134	13.9158
970.027	7.31782
972.92	0.366414
975.812	6.53675
978.705	15.668
981.598	8.89606
984.49	13.7213
987.383	3.3377
990.276	17.4669
993.168	18.3398
996.061	19.1241
998.954	4.39856
1001.85	8.42612
1004.74	8.51145
1007.63	15.7754
1010.52	18.8364
1013.42	30.1225
1016.31	21.0733
1019.2	16.631
1022.1	15.2787
1024.99	28.393
1027.88	13.1203
1030.77	20.7571
1033.67	38.7002
1036.56	17.6668
1039.45	17.4891
1042.34	21.2312
1045.24	24.4077
1048.13	24.3047
1051.02	20.4388
1053.91	8.75329
1056.81	5.47503
1059.7	32.0282
1062.59	22.8692
1065.49	35.0239
1068.38	1.30279
1071.27	19.6203
1074.16	0.611426
1077.06	12.0324
1079.95	3.98096
1082.84	22.6448
1085.73	12.3291
1088.63	10.9573
1091.52	29.3654
1094.41	16.5422
1097.31	19.4187
1100.2	14.8089
1103.09	18.7887
1105.98	2.63952
1108.88	12.3932
1111.77	0.152452
1114.66	15.8831
1117.56	14.0976
1120.45	11.0214
1123.34	29.7543
1126.23	26.8113
1129.12	17.9346
1132.02	10.9068
1134.91	11.6124
1137.8	3.51554
1140.7	27.0379
1143.59	4.79039
1146.48	9.75264
1149.37	3.84454
1152.27	10.7611
1155.16	6.24537
1158.05	4.17678
1160.94	7.29794
1163.84	12.6422
1166.73	4.42008
1169.62	17.6407
1172.52	6.17616
1175.41	7.19834
1178.3	23.6871
1181.19	11.4343
1184.09	0.99718
1186.98	10.119
1189.87	19.8408
1192.77	18.4389
1195.66	32.257
1198.55	16.5526
1201.44	28.0755
1204.34	14.324
1207.23	21.653
1210.12	13.0988
1213.01	5.67454
1215.91	29.8263
1218.8	13.5939
1221.69	14.9561
1224.58	5.53572
1227.48	2.76277
