Measurement: Raman, 780 nm, unoriented, Raman Data Processed
Mineral: Decrespignyite-(Y)
Rruff sample: R060302
Ideal chemistry: Y^3+^_4_Cu^2+^(CO_3_)_4_Cl(OH)_5_2H_2_O
Locality: Paratoo mine, Paratoo, South Australia, Australia
Source: Michael Scott
Description: Blue massive crust
Raman shift (cm-1)	intensity
162.431	0
165.324	4.98731
168.216	6.93547
171.109	6.10325
174.002	5.73526
176.894	8.01527
179.787	8.92151
182.68	7.9342
185.573	16.6173
188.465	3.96582
191.358	10.6378
194.251	8.85612
197.143	11.2796
200.036	17.6667
202.929	12.2849
205.821	19.0652
208.714	14.5593
211.607	13.6012
214.5	3.29579
217.392	6.24324
220.285	0.729843
223.178	3.52853
226.07	5.80089
228.963	2.28824
231.856	9.73286
234.749	8.74594
237.641	11.152
240.534	3.22804
243.427	7.96393
246.319	8.67847
249.212	4.34332
252.105	0.963516
254.997	8.77147
257.89	0.902405
260.783	6.76283
263.675	3.89476
266.568	5.44139
269.461	4.11963
272.354	7.52486
275.246	11.0659
278.139	11.208
281.032	12.3653
283.924	13.4924
286.817	4.34082
289.71	3.19815
292.602	9.83841
295.495	7.53996
298.388	0.522858
301.281	1.11668
304.173	4.44064
307.066	4.79629
309.959	0.458649
312.851	3.78433
315.744	6.61023
318.637	0.017548
321.529	11.9229
324.422	2.86632
327.315	15.8284
330.207	14.9943
333.1	13.9292
335.993	30.6303
338.886	16.3511
341.778	19.0592
344.671	25.6628
347.564	15.9833
350.456	17.3514
353.349	15.6199
356.242	22.2706
359.135	11.532
362.027	5.19311
364.92	13.5089
367.813	4.22321
370.705	11.0465
373.598	8.98766
376.491	0.433731
379.383	15.4529
382.276	2.53966
385.169	0.589813
388.062	1.20355
390.954	7.94702
393.847	16.8416
396.74	11.6108
399.632	7.95547
402.525	4.67407
405.418	16.2244
408.31	11.0119
411.203	21.6774
414.096	12.9037
416.988	17.9367
419.881	8.54388
422.774	11.733
425.667	12.6938
428.559	4.25989
431.452	11.674
434.345	3.10924
437.237	6.11388
440.13	8.06731
443.023	11.6515
445.915	12.8956
448.808	17.8237
451.701	15.8427
454.594	12.6677
457.486	9.644
460.379	22.0999
463.272	15.2184
466.164	13.2674
469.057	25.8861
471.95	23.091
474.842	16.6857
477.735	11.6207
480.628	26.5989
483.521	13.0364
486.413	12.7533
489.306	1.2551
492.199	4.63658
495.091	2.85823
497.984	3.09914
500.877	4.03363
503.769	6.1807
506.662	3.03973
509.555	4.97098
512.447	0.420166
515.34	2.94751
518.233	9.63075
521.126	13.08
524.018	7.8738
526.911	12.2183
529.804	9.66598
532.696	6.22008
535.589	0.901169
538.482	9.21425
541.375	4.65186
544.267	4.47485
547.16	8.47095
550.053	15.3863
552.945	8.83856
555.838	8.17999
558.731	5.25975
561.623	4.47255
564.516	7.17651
567.409	12.7026
570.302	8.0271
573.194	9.83966
576.087	12.8097
578.98	3.92004
581.872	7.80664
584.765	5.47751
587.658	7.63373
590.55	7.21222
593.443	10.3751
596.336	6.56043
599.229	0.903687
602.121	6.55574
605.014	2.05023
607.907	7.80571
610.799	7.15906
613.692	3.74266
616.585	8.785
619.477	6.38937
622.37	5.41083
625.263	13.3707
628.155	7.56386
631.048	6.79114
633.941	9.55234
636.833	3.15599
639.726	15.447
642.619	10.0618
645.512	4.66478
648.404	7.73611
651.297	7.26445
654.19	3.5553
657.082	7.65076
659.975	7.0835
662.868	13.4276
665.76	5.53407
668.653	6.04471
671.546	6.07771
674.439	3.82204
677.331	10.3915
680.224	3.22868
683.117	9.35178
686.009	12.7955
688.902	10.785
691.795	7.41331
694.688	7.79425
697.58	9.62849
700.473	18.6711
703.366	10.0915
706.258	9.38917
709.151	7.9657
712.044	5.00342
714.936	5.97421
717.829	8.38419
720.722	6.45802
723.614	0.884537
726.507	10.0177
729.4	9.35645
732.293	3.13495
735.185	10.8032
738.078	3.05736
740.971	9.4411
743.863	6.9877
746.756	4.70683
749.649	7.6795
752.541	4.28983
755.434	7.48868
758.327	4.28284
761.22	8.09576
764.112	8.82089
767.005	11.2573
769.898	17.0124
772.79	3.14554
775.683	4.87244
778.576	0.894348
781.468	4.05695
784.361	4.05295
787.254	1.3183
790.146	5.19333
793.039	7.96207
795.932	14.6221
798.825	6.83629
801.717	9.76251
804.61	9.62056
807.503	13.056
810.395	14.3945
813.288	14.4627
816.181	16.7394
819.073	9.91614
821.966	20.0072
824.859	14.8642
827.752	18.176
830.644	13.6592
833.537	14.4728
836.43	14.903
839.322	12.0136
842.215	6.75186
845.108	11.0225
848	11.3585
850.893	11.9766
853.786	7.52328
856.679	14.1601
859.571	13.0202
862.464	13.7754
865.357	7.13992
868.249	10.8823
871.142	15.4962
874.035	14.2492
876.927	7.33658
879.82	3.74649
882.713	16.6731
885.606	9.71835
888.498	10.4869
891.391	8.38556
894.284	4.65253
897.176	1.59988
900.069	7.67542
902.962	8.3927
905.854	6.20142
908.747	8.37363
911.64	1.0961
914.533	6.97223
917.425	3.53879
920.318	1.25009
923.211	4.199
926.103	0.237061
928.996	2.8291
931.889	6.24777
934.781	0.744873
937.674	15.705
940.567	9.56924
943.46	17.561
946.352	16.6372
949.245	10.2915
952.138	22.3011
955.03	25.8594
957.923	24.7489
960.816	19.7467
963.708	22.838
966.601	20.3736
969.494	26.1576
972.386	19.8922
975.279	19.7495
978.172	21.4425
981.065	13.4558
983.957	9.9949
986.85	12.4481
989.743	7.55228
992.635	15.9665
995.528	6.17996
998.421	12.1898
1001.31	13.2284
1004.21	9.36783
1007.1	6.34866
1009.99	15.7914
1012.88	4.95065
1015.78	0.139832
1018.67	7.43967
1021.56	7.01782
1024.45	10.0554
1027.35	7.34491
1030.24	2.08911
1033.13	5.51914
1036.03	8.75507
1038.92	14.0475
1041.81	3.5506
1044.7	6.25656
1047.6	3.72611
1050.49	5.53131
1053.38	16.3226
1056.28	17.203
1059.17	19.9222
1062.06	24.4711
1064.95	29.5771
1067.85	21.2062
1070.74	40.1656
1073.63	34.2492
1076.52	18.7585
1079.42	19.2296
1082.31	11.9523
1085.2	13.1538
1088.09	23.6554
1090.99	20.6402
1093.88	17.4737
1096.77	21.2328
1099.66	13.6548
1102.56	11.4106
1105.45	4.12457
1108.34	19.4604
1111.24	4.45013
1114.13	6.20288
1117.02	7.99783
1119.91	3.82755
1122.81	3.09015
1125.7	1.03137
1128.59	3.26349
1131.48	2.07095
1134.38	8.03577
1137.27	9.76251
1140.16	13.3971
1143.06	10.9553
1145.95	9.23584
1148.84	20.1998
1151.73	13.9022
1154.63	10.4695
1157.52	7.29852
1160.41	15.9547
1163.31	11.0959
1166.2	4.33777
1169.09	12.4184
1171.98	6.98505
1174.88	6.80264
1177.77	5.11883
1180.66	3.66586
1183.55	16.9808
1186.45	5.99167
1189.34	16.7081
1192.23	7.84509
1195.12	13.1944
1198.02	11.7846
1200.91	0.909454
1203.8	1.85074
1206.69	2.73498
1209.59	6.39532
1212.48	9.31665
1215.37	16.4602
1218.27	22.265
1221.16	6.69061
1224.05	7.64899
1226.94	5.79526
1229.84	3.02896
1232.73	0.080078
1235.62	3.31119
1238.52	4.15411
1241.41	6.62354
1244.3	7.35156
1247.19	15.9315
1250.09	8.65997
1252.98	7.23984
1255.87	17.5759
1258.76	23.0274
1261.66	20.6697
1264.55	25.1139
1267.44	10.524
1270.33	15.0264
1273.23	15.4649
1276.12	10.74
1279.01	14.8388
1281.9	17.4919
1284.8	0
