Measurement: Raman, 780 nm, unoriented, Raman Data Processed
Mineral: Devilline
Rruff sample: R060126
Ideal chemistry: CaCu^2+^_4_(S^6+^O_4_)_2_(OH)_6_3H_2_O
Locality: Herrengrund, Hungary
Source: University of Arizona Mineral Museum
Description: Greenish-blue pseudohexagonal crystals
Raman shift (cm-1)	intensity
150.362	0
153.254	0.078914
156.147	0.189842
159.04	0.305013
161.932	0.217475
164.825	0.298011
167.718	0.55773
170.61	0.28508
173.503	0.145774
176.396	0.253607
179.288	0.203222
182.181	0.039652
185.074	0.129739
187.966	0.368406
190.859	0.28187
193.752	0.010297
196.645	0.434093
199.537	0.235232
202.43	0.084667
205.323	0.128533
208.215	0.31667
211.108	0.655758
214.001	0.189845
216.893	0.421135
219.786	0.403028
222.679	0.169678
225.572	0.5092
228.464	0.245669
231.357	0.283636
234.25	0.245548
237.142	0.590128
240.035	0.166337
242.928	0.604373
245.821	0.319789
248.713	0.307764
251.606	0.184074
254.499	0.336296
257.391	0.291898
260.284	0.342831
263.177	0.219133
266.069	0.245147
268.962	0.169234
271.855	0.290392
274.748	0.167409
277.64	0.207173
280.533	0.24343
283.426	0.266323
286.318	0.308947
289.211	0.357381
292.104	0.116106
294.996	0.299852
297.889	0.153065
300.782	0.223381
303.675	0.483044
306.567	0.406146
309.46	0.342673
312.353	0.106819
315.245	0.410816
318.138	0.077723
321.031	0.01281
323.923	0.159953
326.816	0.687948
329.709	0.253657
332.601	0.438042
335.494	0.022129
338.387	0.23079
341.279	0.060913
344.172	0.04948
347.065	0.079638
349.958	0.375316
352.85	0.081656
355.743	0.303169
358.636	0.277543
361.528	0.248132
364.421	0.247141
367.314	0.198741
370.207	0.063057
373.099	0.224523
375.992	0.253451
378.885	0.226926
381.777	0.345278
384.67	0.223891
387.563	0.261619
390.455	0.155396
393.348	0.2989
396.241	0.173573
399.134	0.229942
402.026	0.559926
404.919	0.214378
407.812	0.465626
410.704	0.203857
413.597	0.257867
416.49	0.441189
419.382	0.104075
422.275	0.411023
425.168	0.119409
428.06	0.215506
430.953	0.392277
433.846	0.238196
436.739	0.181136
439.631	0.091506
442.524	0.304221
445.417	0.025763
448.309	0.125176
451.202	0.351242
454.095	0.40261
456.988	0.188792
459.88	0.126777
462.773	0.108278
465.666	0.378766
468.558	0.124706
471.451	0.001108
474.344	0.534912
477.236	0.266525
480.129	0.08799
483.022	0.183702
485.914	0.003345
488.807	0.43088
491.7	0.022083
494.592	0.072854
497.485	0.183022
500.378	0.49286
503.271	0.328689
506.163	0.370559
509.056	0.327418
511.949	0.085392
514.841	0.017431
517.734	0.385935
520.627	0.051579
523.519	0.038108
526.412	0.30377
529.305	0.070928
532.198	0.001636
535.09	0.571127
537.983	0.392539
540.876	0.143268
543.768	0.208566
546.661	0.114726
549.554	0.270852
552.447	0.46294
555.339	0.017411
558.232	0.007951
561.125	0.385221
564.017	0.305533
566.91	0.290312
569.803	0.320653
572.695	0.185023
575.588	0.295653
578.481	0.169281
581.374	0.279802
584.266	0.394612
587.159	0.419366
590.052	0.270829
592.944	0.202526
595.837	0.39983
598.73	0.254286
601.622	0.249249
604.515	0.108907
607.408	0.257239
610.301	0.073718
613.193	0.179256
616.086	0.285672
618.979	0.236523
621.871	0.219945
624.764	0.209468
627.657	0.160638
630.549	0.08213
633.442	0.07984
636.335	0.32927
639.227	0.200942
642.12	0.090042
645.013	0.337805
647.905	0.179138
650.798	0.538404
653.691	0.288229
656.584	0.139387
659.476	0.215093
662.369	0.146809
665.262	0.0994
668.154	0.24446
671.047	0.216727
673.94	0.21016
676.832	0.369038
679.725	0.225966
682.618	0.025675
685.511	0.256722
688.403	0.136215
691.296	0.101056
694.189	0.362815
697.081	0.529675
699.974	0.043667
702.867	0.120285
705.76	0.412249
708.652	0.358593
711.545	0.158192
714.438	0.168661
717.33	0.320498
720.223	0.038052
723.116	0.271297
726.008	0.014525
728.901	0.107547
731.794	0.393758
734.687	0.475968
737.579	0.394465
740.472	0.349807
743.365	0.438445
746.257	0.365978
749.15	0.218512
752.043	0.249263
754.935	0.345427
757.828	0.203133
760.721	0.13096
763.614	0.187391
766.506	0.428365
769.399	0.022657
772.292	0.597569
775.184	0.416204
778.077	0.416454
780.97	0.386831
783.862	0.802286
786.755	0.395779
789.648	0.237451
792.54	0.063928
795.433	0.375029
798.326	0.084364
801.218	0.181423
804.111	0.437071
807.004	0.313537
809.897	0.415663
812.789	0.367032
815.682	0.146455
818.575	0.370384
821.467	0.027242
824.36	0.339158
827.253	0.306017
830.145	0.301033
833.038	0.106003
835.931	0.026313
838.824	0.254596
841.716	0.187469
844.609	0.50066
847.502	0.325435
850.394	0.282801
853.287	0.19494
856.18	0.357635
859.072	0.401585
861.965	0.230677
864.858	0.207475
867.751	0.084903
870.643	0.188193
873.536	0.222205
876.429	0.47516
879.321	0.456739
882.214	0.19364
885.107	0.014312
888	0.226907
890.892	0.308547
893.785	0.570226
896.678	0.396459
899.57	0.385815
902.463	0.46821
905.356	0.105993
908.248	0.201936
911.141	0.381822
914.034	0.113927
916.927	0.075787
919.819	0.075152
922.712	0.231432
925.605	0.380373
928.497	0.078246
931.39	0.311553
934.283	0.620943
937.175	0.217305
940.068	0.049856
942.961	0.054979
945.854	0.287192
948.746	0.211422
951.639	0.209843
954.532	0.140488
957.424	0.119462
960.317	0.392841
963.21	0.709416
966.102	0.100485
968.995	0.390581
971.888	0.439216
974.78	0.26726
977.673	0.38616
980.566	0.177065
983.458	0.051508
986.351	0.060281
989.244	0.312924
992.137	0.398625
995.029	0.368616
997.922	0.097197
1000.82	0.541123
1003.71	0.075386
1006.6	0.531694
1009.49	0.154931
1012.38	0.465997
1015.28	0.376309
1018.17	0.056549
1021.06	0.314606
1023.96	0.441113
1026.85	0.260473
1029.74	0.221997
1032.63	0.249912
1035.53	0.313431
1038.42	0.207077
1041.31	0.020686
1044.2	0.233052
1047.1	0.233228
1049.99	0.415653
1052.88	0.219702
1055.78	0.088281
1058.67	0.222093
1061.56	0.340751
1064.45	0.2624
1067.35	0.479075
1070.24	0.332986
1073.13	0.23096
1076.03	0.084737
1078.92	0.106066
1081.81	0.064545
1084.7	0.385309
1087.6	0.029888
1090.49	0.19162
1093.38	0.280769
1096.27	0.036773
1099.17	0.277481
1102.06	0.101808
1104.95	0.183738
1107.84	0.406327
1110.74	0.658614
1113.63	0.607229
1116.52	0.310921
1119.41	0.261355
1122.31	0.236333
1125.2	0.32414
1128.09	0.192779
1130.99	0.211374
1133.88	0.146387
1136.77	0.219239
1139.66	0.371012
1142.56	0.527639
1145.45	0.227866
1148.34	0.290729
1151.23	0.266988
1154.13	0.186732
1157.02	0.024593
1159.91	0.103054
1162.81	0.067311
1165.7	0.050087
1168.59	0.200396
1171.48	0.155507
1174.38	0.20688
1177.27	0.100727
1180.16	0.141507
1183.06	0.01381
1185.95	0.254526
1188.84	0.012149
1191.73	0.20508
1194.62	0.362025
1197.52	0.180335
1200.41	0.372574
1203.3	0.372449
1206.2	0.210557
1209.09	0.28046
1211.98	0.193804
1214.87	0.024842
1217.77	0.295492
1220.66	0.079934
1223.55	0.20629
1226.44	0.364806
1229.34	0.162147
1232.23	0.280297
1235.12	0.462839
1238.02	0.240413
1240.91	0.279604
1243.8	0.202552
1246.69	0.180001
1249.59	0.176676
1252.48	0.497829
1255.37	0.417847
1258.27	0.32817
1261.16	0.254824
1264.05	0.239117
1266.94	0.641338
1269.84	0.121296
1272.73	0.320228
1275.62	0.162867
1278.51	0.726615
1281.41	0.46252
1284.3	0.527435
