Measurement: Raman, 532 nm, unoriented, Raman Data Processed
Mineral: Dewindtite
Rruff sample: R050608
Ideal chemistry: H_2_Pb^2+^_3_(U^6+^O_2_)_6_O_4_(PO_4_)_4_12H_2_O
Locality: La Faye pres Grury, Saone et Loire, France
Source: University of Arizona Mineral Museum
Description: Yellow platy crystals associated with yellow acicular parsonsite
Raman shift (cm-1)	intensity
149.934	0
152.826	14.9111
155.719	65.3857
158.612	95.5166
161.504	115.824
164.397	181.139
167.29	196.692
170.183	177.255
173.075	181.009
175.968	194.757
178.861	229.049
181.753	202.716
184.646	198.261
187.539	190.256
190.431	146.009
193.324	143.493
196.217	145.889
199.109	163.222
202.002	133.097
204.895	120.308
207.788	116.716
210.68	99.125
213.573	87.459
216.466	75.0488
219.358	61.5508
222.251	63.7207
225.144	53.8711
228.036	40.0244
230.929	68.5908
233.822	60.8115
236.715	39.6699
239.607	23.9463
242.5	45.0938
245.393	63.418
248.286	76.7041
251.178	71.041
254.071	79.4834
256.964	52.1943
259.856	41.2588
262.749	39.0332
265.642	73.3652
268.534	76.7188
271.427	65.416
274.32	59.0801
277.212	63.7959
280.105	49.3994
282.998	53.7373
285.891	66.8535
288.783	67.2383
291.676	39.46
294.569	0.583984
297.461	13.8408
300.354	5.4082
303.247	1.71289
306.14	7.72363
309.032	6.39746
311.925	5.37305
314.818	5.41016
317.71	12.3008
320.603	3.66309
323.496	5.60547
326.389	9.54395
329.281	6.13867
332.174	31.5264
335.067	35.915
337.959	16.2529
340.852	12.1211
343.745	9.33496
346.637	21.5234
349.53	16.0859
352.423	5.27051
355.315	11.8906
358.208	40.0547
361.101	73.4434
363.994	52.3672
366.886	30.0791
369.779	7.21191
372.672	10.0918
375.565	18.2969
378.457	27.6484
381.35	53.8486
384.243	53.8203
387.135	73.5957
390.028	83.4424
392.921	79.3106
395.813	69.3232
398.706	84.8311
401.599	74.3135
404.491	81.5977
407.384	89.2754
410.277	50.334
413.17	47.1172
416.062	84.9668
418.955	114.647
421.848	137.693
424.74	145.525
427.633	168.665
430.526	210.096
433.418	167.519
436.311	179.636
439.204	180.892
442.097	182.083
444.989	156.164
447.882	126.193
450.775	103.5
453.667	97.0049
456.56	76.1719
459.453	50.3994
462.346	20.7646
465.238	37.5752
468.131	37.1397
471.024	45.4326
473.916	49.7041
476.809	28.7881
479.702	20.4482
482.594	12.4238
485.487	3.77734
488.38	11.0273
491.273	11.2119
494.165	5.34277
497.058	26.9932
499.951	11.0322
502.843	33.708
505.736	39.7344
508.629	19.498
511.522	30.626
514.414	17.7559
517.307	15.4531
520.2	34.1289
523.092	27.252
525.985	42.8467
528.878	29.9102
531.77	26.9395
534.663	20.8164
537.556	37.0625
540.448	51.0147
543.341	77.6397
546.234	55.0693
549.127	61.2217
552.019	26.5273
554.912	15.7646
557.805	29.4814
560.697	37.4795
563.59	44.9727
566.483	29.8613
569.376	56.2246
572.268	52.708
575.161	38.751
578.054	26.918
580.946	31.2422
583.839	25.4736
586.732	50.9531
589.625	45.6934
592.517	57.5156
595.41	35.9062
598.303	17.7207
601.195	24.8994
604.088	30.5078
606.981	2.91309
609.874	20.5439
612.766	5.42773
615.659	18.1855
618.552	33.0557
621.444	36.1728
624.337	29.2852
627.23	45.5478
630.122	21.1611
633.015	0.032227
635.908	7.58301
638.801	12.7959
641.693	49.4121
644.586	49.3565
647.479	63.1055
650.371	34.2754
653.264	32.9844
656.157	14.208
659.049	7.41309
661.942	4.50488
664.835	16.5312
667.727	13.793
670.62	39.7852
673.513	2.67676
676.406	15.8838
679.298	4.88769
682.191	24.4873
685.084	19.9297
687.976	7.31836
690.869	9.10059
693.762	3.89062
696.654	19.6104
699.547	17.1445
702.44	13.8213
705.333	33.5312
708.225	17.0137
711.118	1.18066
714.011	2.83691
716.904	8.91113
719.796	7.60352
722.689	5.06738
725.582	4.15039
728.474	30.3936
731.367	28.0693
734.26	28.6836
737.152	9.84668
740.045	19.8574
742.938	55.7256
745.831	50.5234
748.723	62.0908
751.616	68.0791
754.509	73.5059
757.401	87.0068
760.294	86.9893
763.187	80.6074
766.08	108.94
768.972	169.243
771.865	184.519
774.758	211.081
777.65	217.342
780.543	255.41
783.436	278.361
786.328	288.383
789.221	296.718
792.114	317.67
795.006	302.685
797.899	292.793
800.792	290.079
803.685	308.661
806.577	301.447
809.47	286.351
812.363	263.051
815.255	277.777
818.148	236.592
821.041	244.838
823.933	230.707
826.826	258.444
829.719	257.055
832.612	232.972
835.504	202.151
838.397	168.061
841.29	181.418
844.182	166.951
847.075	124.916
849.968	96.3652
852.861	79.835
855.753	49.3379
858.646	15.5713
861.539	6.94629
864.431	16.4629
867.324	20.4531
870.217	15.7598
873.11	22.9053
876.002	15.7197
878.895	9.25586
881.788	7.73047
884.68	4.89844
887.573	0.9375
890.466	1.96777
893.358	6.23535
896.251	27.1426
899.144	30.0918
902.037	20.8096
904.929	5.50781
907.822	6.27637
910.715	44.21
913.607	54.5947
916.5	41.8662
919.393	16.7734
922.285	0.308594
925.178	0.736328
928.071	23.7852
930.964	24.5088
933.856	33.8389
936.749	39.1787
939.642	36.3164
942.534	29.3447
945.427	7.7168
948.32	4.37598
951.212	8.39844
954.105	37.0498
956.998	57.4707
959.891	47.9062
962.783	45.8545
965.676	20.6465
968.569	37.2295
971.461	33.916
974.354	47.874
977.247	50.627
980.139	62.8018
983.032	33.3232
985.925	33.4707
988.818	48.9902
991.71	70.7852
994.603	54.332
997.496	53.2285
1000.39	50.1807
1003.28	39.002
1006.17	32.6523
1009.07	14.6221
1011.96	40.8496
1014.85	31.9043
1017.75	32.6943
1020.64	17.7275
1023.53	9.09961
1026.42	12.8701
1029.32	47.207
1032.21	47.8076
1035.1	51.1211
1037.99	30.3984
1040.89	6.26269
1043.78	4.1582
1046.67	40.5068
1049.56	66.6016
1052.46	54.6562
1055.35	34.4531
1058.24	19.499
1061.13	8.58008
1064.03	50.8438
1066.92	29.3711
1069.81	29.6309
1072.71	34.7647
1075.6	39.1924
1078.49	21.4902
1081.38	35.4238
1084.28	40.2041
1087.17	7.70508
1090.06	3.51172
1092.95	15.3408
1095.85	0.586914
1098.74	31.8076
1101.63	23.2764
1104.53	15.7685
1107.42	15.9102
1110.31	4.33496
1113.2	12.5303
1116.1	24.7617
1118.99	43.0137
1121.88	26.1211
1124.78	9.04004
1127.67	23.6582
1130.56	39.0391
1133.45	27.0967
1136.35	45.5664
1139.24	34.5234
1142.13	27.291
1145.02	17.7002
1147.92	28.1045
1150.81	5.49414
1153.7	18.2812
1156.59	27.208
1159.49	23.0791
1162.38	3.01562
1165.27	2.37695
1168.16	3.04785
1171.06	11.8555
1173.95	14.3076
1176.84	20.9004
1179.74	8.11719
1182.63	2.64844
1185.52	11.6543
1188.41	23.0117
1191.31	8.70898
1194.2	6.05566
1197.09	9.18066
1199.98	18.3984
1202.88	14.7021
1205.77	32.9922
1208.66	4.08106
1211.56	7.61621
1214.45	38.3262
1217.34	38.2744
1220.23	24.5967
1223.13	30.332
1226.02	41.5684
1228.91	13.7051
1231.81	21.208
1234.7	25.502
1237.59	6.31445
1240.48	20.9414
1243.38	20.0771
1246.27	34.0996
1249.16	20.9873
1252.05	46.3818
1254.95	35.2666
1257.84	34.8242
1260.73	20.7275
1263.62	14.7822
1266.52	38.581
1269.41	55.2305
1272.3	31.8105
1275.19	28.7637
1278.09	34.3193
1280.98	12.169
1283.87	10.0703
1286.77	28.1484
1289.66	17.0068
1292.55	24.6963
1295.44	12.4082
1298.34	14.125
1301.23	0.571289
