Measurement: Raman, 780 nm, unoriented, Raman Data RAW
Mineral: Diaoyudaoite
Rruff sample: R050182
Ideal chemistry: NaAl_11_O_17_
Locality: Port Elizabeth, Essex County, New Jersey, USA
Source: Marcus Origlieri
Description: Colorless crystal fragments
Measured chemistry: (Na_1.21_Ca_0.06_)(Al_0.99_[box]_0.01_)_11_O_17_
Raman shift (cm-1)	intensity
108.394	56486
111.768	56846.2
115.143	57023.5
118.518	56901.4
121.893	56825.3
125.268	56970.4
128.642	57066.8
132.017	56877.2
135.392	57120.5
138.767	57344.5
142.142	57170.8
145.517	57186.6
148.891	57415.8
152.266	57396.1
155.641	57361.9
159.016	57445.1
162.391	57495.8
165.765	57266.2
169.14	57054.4
172.515	57131.9
175.89	57109.6
179.265	56802.3
182.639	56781.9
186.014	56737.7
189.389	56639.9
192.764	56501.5
196.139	56470.6
199.514	56452.1
202.888	56144.7
206.263	56105.9
209.638	56313.7
213.013	56258.3
216.388	55964.7
219.762	55849.7
223.137	55949.9
226.512	55644.2
229.887	55483.6
233.262	55587.3
236.637	55555.4
240.011	55213.8
243.386	55026.8
246.761	55111
250.136	54841.9
253.511	54620
256.885	54674.6
260.26	54595.8
263.635	54108.3
267.01	53994.1
270.385	54003.3
273.76	53919.3
277.134	53578.5
280.509	53427.7
283.884	53586.4
287.259	53213.3
290.634	53062.1
294.008	52986.3
297.383	52897.7
300.758	52650.5
304.133	52480.7
307.508	52564.4
310.882	52247.4
314.257	51953.3
317.632	52020.2
321.007	51805.4
324.382	51523.1
327.757	51324.8
331.131	51391
334.506	51009
337.881	50761.1
341.256	50692.8
344.631	50618.5
348.005	50323.4
351.38	50289.8
354.755	50251.7
358.13	50072.8
361.505	49683.1
364.88	49652
368.254	49635.6
371.629	49262.2
375.004	48991.5
378.379	48914.5
381.754	48819
385.128	48442.2
388.503	48461
391.878	48384.3
395.253	48072.6
398.628	47859.6
402.002	47804.9
405.377	47573.1
408.752	47344.7
412.127	47215.2
415.502	47241.3
418.877	46895
422.251	46746.3
425.626	46567.3
429.001	46417.8
432.376	46164.8
435.751	45949.7
439.125	45899.9
442.5	45633
445.875	45325.8
449.25	45253
452.625	45196.2
456	44975.1
459.374	44791.5
462.749	44784.6
466.124	44558.4
469.499	44210.5
472.874	43969.2
476.248	43842.8
479.623	43615.4
482.998	43213.2
486.373	43016.7
489.748	42855.4
493.123	42647.9
496.497	42369.7
499.872	42293.8
503.247	41973.2
506.622	41637.2
509.997	41551.8
513.371	41423.4
516.746	41136.3
520.121	40755.8
523.496	40684.2
526.871	40388.5
530.245	40140.7
533.62	40004
536.995	39904.1
540.37	39513.3
543.745	39317.4
547.12	39200.9
550.494	39116.7
553.869	38777
557.244	38614.1
560.619	38558.7
563.994	38305.1
567.369	37933
570.743	37880.1
574.118	37852.9
577.493	37447.5
580.868	37277.2
584.243	37130.7
587.617	37050.4
590.992	36798.8
594.367	36652.5
597.742	36447.8
601.117	36281.4
604.491	35995.6
607.866	35924.5
611.241	35764.9
614.616	35455.4
617.991	35226.9
621.365	35248
624.74	34992.6
628.115	34781.1
631.49	34571.6
634.865	34452.2
638.24	34233.3
641.614	34067.1
644.989	33919
648.364	33744.2
651.739	33313.1
655.114	33266.2
658.489	33180.6
661.863	32964.2
665.238	32544.5
668.613	32537
671.988	32350.8
675.362	32102.6
678.737	31972.5
682.112	31882
685.487	31657.1
688.862	31437
692.237	31291.2
695.611	31209.2
698.986	30921.6
702.361	30629.7
705.736	30665.3
709.111	30468.6
712.486	30259.5
715.86	30022.2
719.235	29928.6
722.61	29670.8
725.985	29439
729.36	29382.5
732.734	29158.6
736.109	28908.2
739.484	28746.4
742.859	28631.7
746.234	28448.3
749.609	28186.6
752.983	28063
756.358	27917.1
759.733	27664.7
763.108	27559.3
766.482	27399.6
769.857	27205.6
773.232	27001
776.607	26973.8
779.982	26758.9
783.357	26500.4
786.731	26392
790.106	26310.9
793.481	26131.2
796.856	25913.7
800.231	25723.3
803.606	25672.3
806.98	25437.2
810.355	25305.7
813.73	25216.5
817.105	25028
820.48	24764.3
823.854	24613.3
827.229	24585.8
830.604	24358.5
833.979	24221.5
837.354	24086
840.729	24008.2
844.103	23747
847.478	23554.4
850.853	23416.8
854.228	23293.4
857.603	23105.1
860.977	23013.6
864.352	22931.5
867.727	22744.8
871.102	22546
874.477	22384.2
877.851	22273.2
881.226	22054.7
884.601	21956.9
887.976	21867.2
891.351	21695.6
894.726	21459.2
898.1	21342.9
901.475	21272.8
904.85	21079.2
908.225	20857.7
911.6	20830.6
914.974	20666.7
918.349	20462.1
921.724	20386.9
925.099	20260.3
928.474	20105.4
931.848	19953.8
935.223	19923.3
938.598	19769.2
941.973	19646.2
945.348	19480.8
948.723	19447.2
952.097	19335.2
955.472	19067.4
958.847	19050.2
962.222	18976.1
965.597	18737.2
968.971	18623.3
972.346	18558.6
975.721	18411.2
979.096	18206.8
982.471	18176.2
985.846	18045.4
989.22	17873.3
992.595	17742
995.97	17719.5
999.345	17600.4
1002.72	17430.3
1006.09	17327.8
1009.47	17202.8
1012.84	17109.4
1016.22	16952.2
1019.59	16924.8
1022.97	16843.7
1026.34	16643
1029.72	16520.7
1033.09	16497.2
1036.47	16369.7
1039.84	16273.5
1043.22	16185.8
1046.59	16065.8
1049.97	15887.7
1053.34	15765.7
1056.72	15690.1
1060.09	15605.5
1063.47	15408.2
1066.84	15366.9
1070.22	15285
1073.59	15132.7
1076.97	15007.7
1080.34	14927.3
1083.71	14843
1087.09	14698.4
1090.46	14653.8
1093.84	14524.6
1097.21	14429.4
1100.59	14291.3
1103.96	14247.7
1107.34	14131.8
1110.71	14012.3
1114.09	13893.6
1117.46	13874.5
1120.84	13733.8
1124.21	13631.2
1127.59	13570.4
1130.96	13495.1
1134.34	13352.9
1137.71	13248
1141.09	13196
1144.46	13128.8
1147.84	12976.7
1151.21	12959.5
1154.59	12862.6
1157.96	12751.4
1161.34	12652.3
1164.71	12622.6
1168.09	12526.2
1171.46	12457.2
1174.84	12334.9
1178.21	12323.5
1181.59	12250.8
1184.96	12135.1
1188.33	12097.1
1191.71	12032.1
1195.08	11927.6
1198.46	11840.5
1201.83	11766.9
1205.21	11686.4
1208.58	11524.1
1211.96	11455.6
1215.33	11425
1218.71	11309.3
1222.08	11192.4
1225.46	11126.7
1228.83	11059.2
1232.21	10934.5
1235.58	10887.6
1238.96	10844.3
1242.33	10754.3
1245.71	10655.5
1249.08	10596.5
1252.46	10565.3
1255.83	10475.5
1259.21	10374.6
1262.58	10378.6
1265.95	10298.9
1269.33	10180.2
1272.7	10137.6
