Measurement: Raman, 514 nm, unoriented, Raman Data Processed
Mineral: Diaoyudaoite
Rruff sample: R050182
Ideal chemistry: NaAl_11_O_17_
Locality: Port Elizabeth, Essex County, New Jersey, USA
Source: Marcus Origlieri
Description: Colorless crystal fragments
Measured chemistry: (Na_1.21_Ca_0.06_)(Al_0.99_[box]_0.01_)_11_O_17_
Raman shift (cm-1)	intensity
101.732	0
105.908	60.25
110.082	144.442
114.254	182.614
118.424	60.327
122.592	21.088
126.758	30.955
130.922	128.729
135.083	301.464
139.243	158.976
143.401	286.507
147.557	544.326
151.711	698.607
155.863	436.836
160.013	273.697
164.161	378.969
168.308	780.478
172.452	1466.12
176.594	2219.92
180.734	2130.91
184.872	1520.9
189.008	1905.52
193.143	1290.63
197.275	603.441
201.405	550.053
205.534	770.575
209.66	666.085
213.784	533.606
217.907	1054.15
222.027	1629.69
226.146	1956.24
230.263	1714.77
234.377	1174.31
238.49	1279.18
242.601	1417.3
246.709	1890.3
250.816	2631.66
254.921	3387.84
259.024	3703.67
263.125	3157.16
267.224	2394.43
271.321	1554.92
275.416	1083.37
279.51	1008.56
283.601	776.716
287.69	547.754
291.778	594.542
295.863	759.898
299.947	1094.92
304.029	1210.81
308.108	1082.69
312.186	857.418
316.262	1018.94
320.336	1216.22
324.408	1548.89
328.478	2054.89
332.546	2557.23
336.612	2687.09
340.677	2280.77
344.739	1932.9
348.799	1449.58
352.858	817.789
356.915	466.518
360.969	297.899
365.022	203.738
369.073	448.049
373.122	995.158
377.169	1777.34
381.215	2067.75
385.258	1845.31
389.299	2119.15
393.339	2194.62
397.376	1850.21
401.412	1042.78
405.446	483.691
409.478	491.979
413.508	572.865
417.536	392.321
421.562	182.477
425.586	314.108
429.609	379.094
433.629	485.742
437.648	473.068
441.665	236.862
445.68	790.029
449.693	1494.53
453.704	1744.34
457.713	1653.45
461.721	1474.83
465.726	1644.47
469.73	2308.34
473.731	2862.42
477.731	2765.71
481.729	1563.18
485.725	700.822
489.72	230.624
493.712	253.568
497.703	451.645
501.691	979.837
505.678	756.134
509.663	537.523
513.646	278.996
517.627	144.542
521.607	23.856
525.584	140.207
529.56	48.325
533.534	78.766
537.506	117.278
541.476	149.396
545.444	191.336
549.41	196.112
553.375	46.78
557.337	212.283
561.298	518.332
565.257	598.201
569.214	674.217
573.17	449.095
577.123	167.639
581.075	186.084
585.024	230.968
588.972	342.511
592.918	445.704
596.863	949.333
600.805	1300.19
604.746	1361.29
608.685	1302.59
612.621	1395.65
616.557	1875.45
620.49	1583.99
624.421	1541.25
628.351	1269.24
632.279	1602.93
636.205	2442.33
640.129	2651.43
644.051	2339.21
647.972	1816.67
651.89	1552.81
655.807	1058.62
659.722	943.091
663.636	836.22
667.547	577.301
671.457	597.997
675.365	805.792
679.271	738.262
683.175	945.157
687.077	813.074
690.978	946.595
694.877	865.828
698.774	801.733
702.669	442.937
706.562	602.428
710.454	305.43
714.344	368.844
718.232	327.628
722.118	24.003
726.002	64.571
729.885	38.71
733.766	65.176
737.645	4.121
741.522	60.844
745.397	71.384
749.271	22.458
753.143	89.693
757.013	206.962
760.881	364.592
764.748	484.463
768.613	677.964
772.476	813.099
776.337	771.869
780.196	962.279
784.054	892.334
787.91	1048.04
791.764	996.39
795.616	855.399
799.467	761.071
803.316	727.408
807.163	485.416
811.008	416.103
814.851	362.468
818.693	365.826
822.533	332.89
826.371	247.263
830.208	185.238
834.042	174.206
837.875	177.105
841.706	81.882
845.536	78.602
849.363	157.816
853.189	230.578
857.013	203.275
860.836	239.091
864.656	230.936
868.475	284.512
872.292	308.779
876.108	316.021
879.922	334.246
883.733	361.321
887.544	405.152
891.352	363.806
895.159	295.84
898.964	326.239
902.767	400.976
906.568	613.539
910.368	760.506
914.166	732.525
917.962	566.723
921.757	589.081
925.55	323.308
929.341	380.517
933.13	203.718
936.918	286.918
940.703	315.128
944.488	313.354
948.27	469.604
952.051	479.883
955.83	393.198
959.607	260.557
963.383	294.965
967.156	74.427
970.928	118.075
974.699	178.976
978.468	277.053
982.234	189.428
986	160.235
989.763	18.802
993.525	247.31
997.285	260.295
1001.04	500.574
1004.8	571.159
1008.55	462.845
1012.31	422.543
1016.06	405.835
1019.81	473.278
1023.56	441
1027.31	382.03
1031.05	426.622
1034.79	352.013
1038.53	342.222
1042.27	314.129
1046.01	235.619
1049.75	285.688
1053.48	339.691
1057.22	499.416
1060.95	802.88
1064.68	1166.13
1068.4	1144.13
1072.13	1322.74
1075.86	2276.8
1079.58	2558.18
1083.3	3609.85
1087.02	6358.75
1090.74	10989.8
1094.45	13046.1
1098.17	10115.4
1101.88	6119.82
1105.59	3392.33
1109.3	2176.91
1113.01	1569.57
1116.71	1312.31
1120.42	1191.77
1124.12	1300.22
1127.82	1395.45
1131.52	1928.18
1135.22	3132.97
1138.91	6690.78
1142.61	16753.4
1146.3	31689.2
1149.99	34092.2
1153.68	18646.3
1157.37	7417.92
1161.06	4186.81
1164.74	5151.68
1168.42	8546.54
1172.1	9743.2
1175.78	5610.53
1179.46	2860.61
1183.14	2158.21
1186.81	2382.97
1190.48	3263.01
1194.15	6325.79
1197.83	14530.4
1201.49	19943.4
1205.16	11984.8
1208.82	8909
1212.49	13177.3
1216.15	26770.2
1219.81	48143.4
1223.46	53749.8
1227.12	33870.2
1230.78	17033.5
1234.43	9042.06
1238.08	5297.53
1241.73	3500.19
1245.38	2592.81
1249.03	2202.09
1252.67	2028.21
1256.31	2069.07
1259.95	2701.68
1263.6	4370.02
1267.23	7460.14
1270.87	11397.1
1274.51	11310.9
1278.14	7340.83
1281.77	4072.12
1285.4	2308.39
1289.03	1357.33
1292.66	920.646
1296.28	601.974
1299.91	607.733
1303.53	363.096
1307.15	257.814
1310.77	85.135
1314.38	105.29
1318	5.582
1321.61	25.584
1325.23	42.971
1328.84	39.066
1332.45	81.869
1336.06	2.747
1339.66	25.936
1343.27	71.596
1346.87	123.29
1350.47	74.665
1354.07	76.831
1357.67	100.199
1361.26	47.987
1364.86	49.49
1368.45	28.538
1372.04	157.792
1375.63	316.413
1379.22	380.742
1382.81	723.448
1386.39	854.348
1389.98	1244.18
1393.56	1682.18
1397.14	1974.31
1400.72	2301.5
1404.3	2277.63
1407.87	1991.43
1411.45	1701.93
1415.02	1338.76
1418.59	917.745
1422.16	701.068
1425.73	551.393
1429.29	569.978
1432.86	684.975
1436.42	785.867
1439.98	951.426
1443.54	1191.13
1447.1	1386.47
1450.66	1859.06
1454.21	2011.66
1457.77	1815.41
1461.32	1271.4
1464.87	732.838
1468.42	358.461
1471.96	58.684
1475.51	73.273
1479.06	11.326
1482.6	244.109
1486.14	740.568
1489.68	1367.5
1493.22	2116.12
1496.75	2513.54
1500.29	2611.09
1503.82	2052.12
1507.35	1481.69
1510.88	1135.87
1514.41	510.904
1517.94	161.615
1521.46	0.872
1524.99	0
