Measurement: Raman, 780 nm, unoriented, Raman Data Processed
Mineral: Diaoyudaoite
Rruff sample: R130023
Ideal chemistry: NaAl_11_O_17_
Locality: Synthetic
Source: Ken Roberts
Description: Purple hexagonal tabular crystal
Raman shift (cm-1)	intensity
91.1996	5653.55
94.5744	5975.29
97.9492	5793.37
101.324	5622.74
104.699	5600.82
108.074	5574.24
111.448	5552.33
114.823	5539.56
118.198	5536.78
121.573	5529.47
124.948	5492.94
128.322	5484
131.697	5442.54
135.072	5451.15
138.447	5429.74
141.822	5402.98
145.197	5390.83
148.571	5372.31
151.946	5347.94
155.321	5333.98
158.696	5303.66
162.071	5287.61
165.446	5264.56
168.82	5243.94
172.195	5198.71
175.57	5180.59
178.945	5172.9
182.32	5136.34
185.694	5119.31
189.069	5096.57
192.444	5069.67
195.819	5034.55
199.194	5014.33
202.569	5013.89
205.943	4983.93
209.318	4960.6
212.693	4915.06
216.068	4918.94
219.442	4887.31
222.817	4860.15
226.192	4837.75
229.567	4813.43
232.942	4783.92
236.317	4769.7
239.691	4745.42
243.066	4728.26
246.441	4703.46
249.816	4689.74
253.191	4648.76
256.565	4623.36
259.94	4597.28
263.315	4575.27
266.69	4547.7
270.065	4525.35
273.44	4502.48
276.814	4462.57
280.189	4447.12
283.564	4425.66
286.939	4388.86
290.314	4374.12
293.688	4351.24
297.063	4329.78
300.438	4315.17
303.813	4295.18
307.188	4259.31
310.562	4232.13
313.937	4231
317.312	4212.62
320.687	4177.89
324.062	4147.75
327.437	4136.27
330.811	4107.57
334.186	4097.52
337.561	4065.33
340.936	4038.69
344.311	4009.82
347.685	3984.51
351.06	3958.63
354.435	3937.48
357.81	3932.07
361.185	3918.24
364.56	3875.05
367.934	3874.11
371.309	3842.44
374.684	3810.16
378.059	3794.56
381.434	3788.88
384.808	3765.24
388.183	3738.92
391.558	3720.32
394.933	3696.93
398.308	3680.71
401.683	3659.14
405.057	3652.61
408.432	3628.44
411.807	3610.7
415.182	3594.12
418.557	3567.86
421.931	3555.81
425.306	3540.26
428.681	3527.45
432.056	3505.9
435.431	3499.64
438.805	3479.09
442.18	3458.88
445.555	3444.91
448.93	3422.2
452.305	3409.29
455.68	3390.74
459.054	3381.68
462.429	3359.84
465.804	3342.53
469.179	3323.67
472.554	3297.29
475.928	3281.07
479.303	3264.07
482.678	3263.19
486.053	3240.72
489.428	3219.66
492.803	3186.25
496.177	3182.37
499.552	3154.9
502.927	3136.52
506.302	3120.12
509.677	3116.45
513.051	3091.52
516.426	3081.88
519.801	3062.04
523.176	3039.92
526.551	3023.45
529.926	2999.38
533.3	2980.86
536.675	2959.37
540.05	2944.03
543.425	2925.48
546.799	2914.88
550.174	2905.59
553.549	2893.19
556.924	2867.49
560.299	2858.57
563.674	2848.86
567.048	2833.06
570.423	2809.26
573.798	2795.75
577.173	2785.05
580.548	2763.39
583.923	2755.88
587.297	2745.42
590.672	2723.28
594.047	2703.38
597.422	2698.48
600.797	2676.95
604.171	2664.3
607.546	2647.72
610.921	2636.85
614.296	2614.08
617.671	2597.08
621.045	2581.7
624.42	2579.36
627.795	2562.64
631.17	2546.31
634.545	2526.75
637.919	2517.55
641.294	2503.29
644.669	2501.67
648.044	2467.38
651.419	2456.68
654.794	2442.05
658.168	2432.83
661.543	2408.8
664.918	2399.22
668.293	2385.49
671.668	2369.18
675.043	2365.91
678.417	2351.22
681.792	2317.13
685.167	2308.34
688.542	2297.44
691.917	2286.44
695.291	2280.84
698.666	2257.39
702.041	2240.32
705.416	2241.72
708.791	2223.78
712.165	2210.73
715.54	2211.57
718.915	2180.24
722.29	2175.81
725.665	2155.37
729.039	2156.06
732.414	2139.63
735.789	2129.71
739.164	2112.28
742.539	2100.77
745.914	2089.22
749.288	2080.99
752.663	2073.95
756.038	2050.25
759.413	2049.4
762.788	2038.51
766.163	2021.21
769.537	2012.42
772.912	2008.73
776.287	1987.59
779.662	1981.13
783.037	1971.78
786.411	1964.37
789.786	1961.2
793.161	1947.16
796.536	1931.07
799.911	1919.73
803.285	1906.08
806.66	1908.54
810.035	1889.75
813.41	1877.34
816.785	1872.59
820.159	1860.06
823.534	1865.31
826.909	1858.16
830.284	1832.76
833.659	1830.63
837.034	1812.99
840.408	1806.52
843.783	1793.79
847.158	1784.47
850.533	1793.92
853.908	1759.34
857.283	1753.18
860.657	1750.85
864.032	1723.46
867.407	1723.12
870.782	1705.16
874.157	1698.33
877.531	1689.92
880.906	1685.17
884.281	1667.13
887.656	1662.03
891.031	1659.37
894.405	1639.06
897.78	1629.18
901.155	1625.9
904.53	1610.46
907.905	1602.28
911.279	1585.44
914.654	1588.03
918.029	1579.17
921.404	1566.67
924.779	1557.23
928.154	1551.66
931.528	1546.98
934.903	1537.19
938.278	1513.45
941.653	1529.14
945.028	1508.32
948.403	1494.29
951.777	1488.1
955.152	1484.59
958.527	1474.42
961.902	1461.02
965.277	1453.22
968.651	1446.57
972.026	1430.48
975.401	1429.49
978.776	1425.12
982.151	1412.1
985.525	1404.71
988.9	1393.22
992.275	1388.13
995.65	1383.55
999.025	1375.95
1002.4	1369.79
1005.77	1359.64
1009.15	1355.45
1012.52	1348.42
1015.9	1338.34
1019.27	1332.05
1022.65	1322.03
1026.02	1324.4
1029.4	1306.47
1032.77	1311.26
1036.15	1307.48
1039.52	1295.27
1042.9	1281.72
1046.27	1274.89
1049.65	1276.74
1053.02	1271.35
1056.4	1265.94
1059.77	1252.87
1063.15	1248.61
1066.52	1237.57
1069.9	1229.68
1073.27	1223.49
1076.64	1218.33
1080.02	1211.92
1083.39	1207.44
1086.77	1203.57
1090.14	1199.37
1093.52	1189.94
1096.89	1187.48
1100.27	1179.18
1103.64	1167.6
1107.02	1168.33
1110.39	1160.96
1113.77	1154.69
1117.14	1143.06
1120.52	1145.09
1123.89	1141.82
1127.27	1138.77
1130.64	1129.4
1134.02	1125.37
1137.39	1125.43
1140.77	1121.98
1144.14	1111.79
1147.52	1110.29
1150.89	1109.41
1154.27	1105.79
1157.64	1094.44
1161.02	1084.1
1164.39	1082.39
1167.77	1083.88
1171.14	1078.65
1174.52	1078.94
1177.89	1073.29
1181.27	1073.22
1184.64	1059.62
1188.01	1056.49
1191.39	1050.43
1194.76	1048.22
1198.14	1044.41
1201.51	1040.12
1204.89	1030.93
1208.26	1022.49
1211.64	1018.18
1215.01	1021.12
1218.39	1012.12
1221.76	1010.08
1225.14	1002.34
1228.51	998.729
1231.89	997.707
1235.26	988.773
1238.64	989.291
1242.01	986.286
1245.39	983.306
1248.76	972.304
1252.14	966.911
1255.51	971.738
1258.88	961.846
1262.26	961.146
1265.63	958.598
1269.01	950.939
1272.38	959.273
1275.76	952.842
1279.13	946.971
1282.51	938.297
