Measurement: Raman, 532 nm, unoriented, Raman Data Processed
Mineral: Digenite
Rruff sample: R060840
Ideal chemistry: Cu_1.8_S
Locality: Butte, Montana, USA
Source: Michael Scott
Description: Black to deep blue metallic massive, diffraction indicates that this sample is in the high temperature form
Measured chemistry: (Cu_1.66_Fe_0.02_)_Î£=1.68_S_1.00_
Raman shift (cm-1)	intensity
144.183	0
147.075	21.5139
149.968	17.1329
152.861	30.1125
155.753	24.4934
158.646	11.4627
161.539	7.8562
164.431	11.3016
167.324	32.168
170.217	27.8044
173.109	24.3208
176.002	1.3576
178.895	3.97229
181.788	22.5902
184.68	24.8829
187.573	10.6334
190.466	16.7611
193.358	16.8498
196.251	30.364
199.144	34.0253
202.036	10.3554
204.929	24.4965
207.822	40.2569
210.714	24.0823
213.607	10.8604
216.5	24.1715
219.393	18.2616
222.285	21.098
225.178	22.4962
228.071	20.0116
230.963	32.6787
233.856	24.0634
236.749	42.4234
239.642	3.88745
242.534	11.342
245.427	36.4086
248.32	14.0403
251.212	10.4811
254.105	4.13702
256.998	11.7595
259.89	38.0332
262.783	36.9429
265.676	23.2608
268.568	20.395
271.461	19.2985
274.354	13.3827
277.247	29.6853
280.139	12.9391
283.032	1.38812
285.925	16.8038
288.817	7.74835
291.71	27.4592
294.603	0.402222
297.495	18.8534
300.388	9.0929
303.281	34.7582
306.174	45.1876
309.066	36.9443
311.959	51.3003
314.852	45.5195
317.744	29.7751
320.637	21.3524
323.53	46.4304
326.422	56.7681
329.315	43.2593
332.208	34.7534
335.101	25.9601
337.993	9.30231
340.886	15.0126
343.779	2.97449
346.671	20.4605
349.564	22.7839
352.457	26.5638
355.349	1.98657
358.242	3.57275
361.135	16.3756
364.027	30.4576
366.92	17.0021
369.813	35.795
372.706	33.8339
375.598	16.0691
378.491	9.38031
381.384	3.12677
384.276	20.009
387.169	12.8176
390.062	4.78613
392.954	8.21924
395.847	4.13171
398.74	10.7842
401.633	26.7032
404.525	6.92371
407.418	17.6926
410.311	11.1378
413.203	15.19
416.096	19.5996
418.989	15.0386
421.881	22.6535
424.774	25.7976
427.667	9.22082
430.56	24.1391
433.452	14.0488
436.345	10.6849
439.238	17.6732
442.13	10.0921
445.023	17.03
447.916	24.9215
450.808	11.0022
453.701	17.3002
456.594	19.9023
459.486	10.5307
462.379	19.2635
465.272	33.6525
468.165	37.6935
471.057	12.6645
473.95	6.24023
476.843	10.6619
479.735	23.2088
482.628	21.3848
485.521	17.4416
488.413	61.8087
491.306	46.6312
494.199	25.443
497.092	7.10583
499.984	19.8296
502.877	19.4849
505.77	12.5833
508.662	46.1579
511.555	11.1738
514.448	29.027
517.341	11.1824
520.233	3.18133
523.126	41.6533
526.019	34.7264
528.911	53.9797
531.804	11.1393
534.697	9.18201
537.589	1.86182
540.482	20.751
543.375	32.7112
546.268	14.5012
549.16	15.8262
552.053	37.7468
554.946	10.6567
557.838	2.69006
560.731	43.2906
563.624	3.75879
566.516	16.8113
569.409	27.5345
572.302	21.8388
575.194	39.752
578.087	14.4901
580.98	29.2631
583.872	3.49097
586.765	25.8732
589.658	11.3807
592.551	18.8748
595.443	35.9107
598.336	7.46826
601.229	24.8773
604.121	18.9457
607.014	13.6317
609.907	12.6828
612.799	38.4907
615.692	23.0958
618.585	30.0705
621.477	12.6903
624.37	53.8543
627.263	24.8325
630.156	28.7095
633.048	14.8356
635.941	25.0093
638.834	17.5459
641.726	1.77539
644.619	5.97217
647.512	21.0771
650.404	1.94806
653.297	17.1524
656.19	32.6198
659.083	21.6437
661.975	21.8027
664.868	14.344
667.761	39.2867
670.653	8.30481
673.546	15.4896
676.439	13.1158
679.332	1.60669
682.224	11.4297
685.117	33.9772
688.01	28.9281
690.902	20.124
693.795	48.1785
696.688	5.88562
699.58	32.0812
702.473	24.8541
705.366	12.5718
708.259	8.79761
711.151	19.9772
714.044	30.9376
716.937	34.8552
719.829	8.96838
722.722	17.4194
725.615	23.6362
728.507	35.1697
731.4	15.1975
734.293	24.0016
737.185	0.244019
740.078	17.8268
742.971	10.3809
745.864	33.1399
748.756	27.6149
751.649	27.9941
754.542	29.8919
757.434	31.6593
760.327	22.3066
763.22	17.938
766.112	29.7553
769.005	24.8339
771.898	19.3818
774.79	8.21619
777.683	16.3857
780.576	38.9978
783.469	22.5192
786.361	1.50855
789.254	43.2026
792.147	33.9639
795.039	45.4749
797.932	47.8047
800.825	18.4862
803.717	47.1996
806.61	3.27673
809.503	15.9447
812.396	16.032
815.288	4.5846
818.181	31.4141
821.074	2.69287
823.966	34.6207
826.859	9.40124
829.752	39.6603
832.644	35.7023
835.537	20.908
838.43	14.1643
841.323	15.4087
844.215	16.0874
847.108	30.3184
850.001	26.4636
852.893	3.30725
855.786	10.9569
858.679	24.5629
861.571	23.4241
864.464	35.0605
867.357	28.0857
870.25	33.2789
873.142	4.31409
876.035	38.3832
878.928	40.813
881.82	30.2515
884.713	25.5308
887.606	24.986
890.498	31.6443
893.391	42.0981
896.284	56.3673
899.177	25.3805
902.069	25.661
904.962	24.5548
907.855	11.8967
910.747	20.235
913.64	39.3394
916.533	23.3953
919.425	8.82812
922.318	28.4202
925.211	63.3026
928.104	9.82739
930.996	1.24439
933.889	25.6732
936.782	21.8672
939.674	20.1968
942.567	29.8592
945.46	4.94446
948.352	33.3738
951.245	38.9169
954.138	32.5719
957.03	41.0393
959.923	8.93005
962.816	19.569
965.709	13.0936
968.601	4.19849
971.494	14.9011
974.387	13.6891
977.279	31.2639
980.172	13.0636
983.065	46.2788
985.957	22.173
988.85	23.519
991.743	36.5676
994.635	24.9893
997.528	21.1807
1000.42	56.1014
1003.31	12.0568
1006.21	12.9062
1009.1	55.3597
1011.99	21.4744
1014.88	22.6565
1017.78	16.6892
1020.67	3.24268
1023.56	6.30566
1026.45	40.3094
1029.35	25.3232
1032.24	23.6351
1035.13	47.0286
1038.03	23.781
1040.92	15.5945
1043.81	53.2079
1046.7	17.6328
1049.6	31.5391
1052.49	1.68835
1055.38	10.1345
1058.28	36.2122
1061.17	20.1858
1064.06	28.9978
1066.95	20.6008
1069.85	32.2137
1072.74	16.9392
1075.63	35.7886
1078.52	7.37671
1081.42	19.9191
1084.31	12.8874
1087.2	9.27344
1090.09	2.64294
1092.99	40.4498
1095.88	26.927
1098.77	27.3949
1101.66	4.27441
1104.56	11.6663
1107.45	16.7164
1110.34	48.9819
1113.24	5.51489
1116.13	34.1165
1119.02	16.5053
1121.91	47.7315
1124.81	2.87927
1127.7	23.5369
1130.59	24.3226
1133.48	6.25989
1136.38	11.8451
1139.27	50.7444
1142.16	13.1605
1145.06	30.7866
1147.95	48.0321
1150.84	20.9032
1153.73	20.2145
1156.63	31.8872
1159.52	32.2614
1162.41	19.8182
1165.31	30.0341
1168.2	15.9327
1171.09	22.686
1173.98	15.5316
1176.88	64.1992
1179.77	6.77795
1182.66	55.8721
1185.55	41.2469
1188.45	42.1388
1191.34	50.1294
1194.23	25.8846
1197.12	22.4703
1200.02	45.8712
1202.91	12.0625
1205.8	13.9805
1208.69	36.3413
1211.59	53.1506
1214.48	18.1451
1217.37	21.6713
1220.27	3.44312
1223.16	48.654
1226.05	22.5066
1228.94	51.1543
1231.84	55.2406
1234.73	20.1974
1237.62	19.9232
1240.52	17.9039
1243.41	31.6234
1246.3	63.4037
1249.19	15.1921
1252.09	46.8272
1254.98	33.2667
1257.87	5.30908
1260.76	28.6492
1263.66	21.453
1266.55	25.4452
1269.44	21.9179
1272.33	69.7516
1275.23	7.52527
1278.12	14.3329
1281.01	30.8867
1283.9	6.23547
1286.8	2.98731
1289.69	47.8282
1292.58	29.8589
1295.48	11.58
1298.37	4.85889
