Measurement: Raman, 780 nm, unoriented, Raman Data RAW
Mineral: Diopside
Rruff sample: R090046
Ideal chemistry: CaMgSi_2_O_6_
Locality: Merelani, Tanzania
Source: Wendell Wilson
Description: Green crystals associated with graphite, R090047
Raman shift (cm-1)	intensity
104.56	2.48167e+06
107.935	2.48483e+06
111.31	2.49197e+06
114.685	2.49754e+06
118.06	2.50215e+06
121.434	2.5008e+06
124.809	2.5033e+06
128.184	2.51004e+06
131.559	2.51427e+06
134.934	2.52238e+06
138.309	2.52916e+06
141.683	2.53562e+06
145.058	2.53334e+06
148.433	2.53426e+06
151.808	2.53856e+06
155.183	2.54161e+06
158.557	2.54592e+06
161.932	2.54651e+06
165.307	2.54705e+06
168.682	2.54815e+06
172.057	2.54911e+06
175.431	2.54854e+06
178.806	2.54954e+06
182.181	2.54813e+06
185.556	2.54798e+06
188.931	2.5478e+06
192.306	2.54915e+06
195.68	2.54832e+06
199.055	2.54698e+06
202.43	2.54501e+06
205.805	2.54648e+06
209.18	2.54797e+06
212.554	2.54978e+06
215.929	2.55081e+06
219.304	2.55078e+06
222.679	2.55281e+06
226.054	2.55313e+06
229.429	2.55069e+06
232.803	2.54896e+06
236.178	2.54888e+06
239.553	2.54822e+06
242.928	2.54803e+06
246.303	2.54722e+06
249.677	2.54564e+06
253.052	2.54313e+06
256.427	2.5388e+06
259.802	2.53874e+06
263.177	2.53955e+06
266.551	2.54046e+06
269.926	2.54221e+06
273.301	2.53643e+06
276.676	2.53458e+06
280.051	2.53363e+06
283.426	2.54045e+06
286.8	2.53663e+06
290.175	2.53365e+06
293.55	2.52871e+06
296.925	2.52595e+06
300.3	2.52624e+06
303.675	2.52447e+06
307.049	2.52237e+06
310.424	2.52314e+06
313.799	2.52024e+06
317.174	2.51845e+06
320.548	2.51537e+06
323.923	2.51577e+06
327.298	2.51058e+06
330.673	2.51072e+06
334.048	2.50725e+06
337.423	2.5083e+06
340.797	2.50678e+06
344.172	2.50582e+06
347.547	2.50298e+06
350.922	2.50489e+06
354.297	2.50479e+06
357.671	2.50782e+06
361.046	2.49993e+06
364.421	2.49397e+06
367.796	2.4902e+06
371.171	2.49157e+06
374.546	2.48753e+06
377.92	2.48622e+06
381.295	2.48207e+06
384.67	2.47906e+06
388.045	2.47698e+06
391.42	2.47547e+06
394.795	2.47278e+06
398.169	2.47168e+06
401.544	2.46807e+06
404.919	2.46654e+06
408.294	2.46425e+06
411.668	2.46311e+06
415.043	2.45979e+06
418.418	2.4576e+06
421.793	2.45927e+06
425.168	2.45641e+06
428.543	2.45206e+06
431.917	2.45261e+06
435.292	2.44975e+06
438.667	2.44969e+06
442.042	2.44289e+06
445.417	2.44223e+06
448.791	2.44252e+06
452.166	2.43911e+06
455.541	2.43422e+06
458.916	2.43464e+06
462.291	2.4341e+06
465.666	2.43156e+06
469.04	2.42918e+06
472.415	2.42547e+06
475.79	2.4209e+06
479.165	2.41296e+06
482.54	2.40901e+06
485.914	2.40308e+06
489.289	2.40146e+06
492.664	2.39951e+06
496.039	2.39562e+06
499.414	2.38959e+06
502.788	2.38227e+06
506.163	2.38001e+06
509.538	2.37544e+06
512.913	2.37315e+06
516.288	2.37157e+06
519.663	2.36613e+06
523.037	2.36342e+06
526.412	2.3573e+06
529.787	2.3524e+06
533.162	2.34796e+06
536.537	2.3425e+06
539.912	2.33959e+06
543.286	2.33836e+06
546.661	2.33268e+06
550.036	2.3295e+06
553.411	2.32992e+06
556.785	2.32693e+06
560.16	2.32432e+06
563.535	2.31826e+06
566.91	2.31418e+06
570.285	2.31388e+06
573.66	2.30778e+06
577.034	2.30676e+06
580.409	2.3032e+06
583.784	2.3004e+06
587.159	2.30306e+06
590.534	2.29933e+06
593.909	2.2942e+06
597.283	2.28936e+06
600.658	2.28552e+06
604.033	2.28536e+06
607.408	2.28344e+06
610.783	2.27969e+06
614.157	2.27874e+06
617.532	2.27507e+06
620.907	2.27121e+06
624.282	2.26932e+06
627.657	2.26756e+06
631.031	2.26338e+06
634.406	2.2606e+06
637.781	2.25928e+06
641.156	2.25662e+06
644.531	2.25072e+06
647.905	2.2505e+06
651.28	2.24705e+06
654.655	2.2414e+06
658.03	2.24002e+06
661.405	2.23744e+06
664.78	2.23443e+06
668.154	2.23571e+06
671.529	2.22523e+06
674.904	2.22216e+06
678.279	2.21519e+06
681.654	2.21363e+06
685.029	2.20894e+06
688.403	2.20509e+06
691.778	2.19785e+06
695.153	2.19849e+06
698.528	2.19532e+06
701.903	2.18939e+06
705.277	2.1864e+06
708.652	2.18706e+06
712.027	2.18455e+06
715.402	2.18317e+06
718.777	2.17929e+06
722.151	2.17541e+06
725.526	2.17139e+06
728.901	2.16619e+06
732.276	2.16513e+06
735.651	2.16184e+06
739.025	2.15961e+06
742.4	2.15652e+06
745.775	2.15615e+06
749.15	2.15162e+06
752.525	2.14512e+06
755.9	2.13961e+06
759.274	2.13778e+06
762.649	2.13611e+06
766.024	2.13108e+06
769.399	2.1262e+06
772.774	2.12757e+06
776.149	2.1251e+06
779.523	2.12192e+06
782.898	2.12037e+06
786.273	2.1193e+06
789.648	2.11957e+06
793.023	2.11331e+06
796.397	2.11191e+06
799.772	2.11001e+06
803.147	2.10296e+06
806.522	2.10459e+06
809.897	2.10288e+06
813.271	2.0983e+06
816.646	2.09801e+06
820.021	2.09305e+06
823.396	2.08983e+06
826.771	2.08992e+06
830.145	2.08736e+06
833.52	2.08575e+06
836.895	2.08297e+06
840.27	2.07975e+06
843.645	2.07141e+06
847.02	2.06955e+06
850.394	2.06672e+06
853.769	2.0666e+06
857.144	2.064e+06
860.519	2.05983e+06
863.894	2.05374e+06
867.269	2.04847e+06
870.643	2.04782e+06
874.018	2.04703e+06
877.393	2.03949e+06
880.768	2.03661e+06
884.143	2.03676e+06
887.517	2.03274e+06
890.892	2.02716e+06
894.267	2.02494e+06
897.642	2.0175e+06
901.017	2.01326e+06
904.391	2.00997e+06
907.766	2.00753e+06
911.141	2.00633e+06
914.516	2.00547e+06
917.891	1.99969e+06
921.265	1.99645e+06
924.64	1.99333e+06
928.015	1.98988e+06
931.39	1.98814e+06
934.765	1.98314e+06
938.14	1.9812e+06
941.514	1.97903e+06
944.889	1.97421e+06
948.264	1.97048e+06
951.639	1.96712e+06
955.014	1.96621e+06
958.388	1.96153e+06
961.763	1.95988e+06
965.138	1.95074e+06
968.513	1.9484e+06
971.888	1.94751e+06
975.263	1.94664e+06
978.637	1.93998e+06
982.012	1.93743e+06
985.387	1.93462e+06
988.762	1.93145e+06
992.137	1.92891e+06
995.511	1.92766e+06
998.886	1.92623e+06
1002.26	1.92513e+06
1005.64	1.92428e+06
1009.01	1.92512e+06
1012.38	1.92586e+06
1015.76	1.9201e+06
1019.13	1.91609e+06
1022.51	1.91206e+06
1025.88	1.9131e+06
1029.26	1.90646e+06
1032.63	1.90412e+06
1036.01	1.90142e+06
1039.38	1.90094e+06
1042.76	1.89511e+06
1046.13	1.89517e+06
1049.51	1.89386e+06
1052.88	1.89018e+06
1056.26	1.8853e+06
1059.63	1.88218e+06
1063.01	1.8818e+06
1066.38	1.87709e+06
1069.76	1.87101e+06
1073.13	1.8713e+06
1076.51	1.87128e+06
1079.88	1.86596e+06
1083.26	1.86218e+06
1086.63	1.85722e+06
1090.01	1.85528e+06
1093.38	1.85338e+06
1096.76	1.8476e+06
1100.13	1.84671e+06
1103.51	1.84498e+06
1106.88	1.84063e+06
1110.26	1.84017e+06
1113.63	1.83536e+06
1117.01	1.83255e+06
1120.38	1.82884e+06
1123.75	1.82829e+06
1127.13	1.82296e+06
1130.5	1.82109e+06
1133.88	1.82181e+06
1137.25	1.81764e+06
1140.63	1.81475e+06
1144	1.812e+06
1147.38	1.81039e+06
1150.75	1.80978e+06
1154.13	1.80576e+06
1157.5	1.80514e+06
1160.88	1.80781e+06
1164.25	1.80807e+06
1167.63	1.80326e+06
1171	1.79958e+06
1174.38	1.7997e+06
1177.75	1.79436e+06
1181.13	1.79691e+06
1184.5	1.79136e+06
1187.88	1.78936e+06
1191.25	1.78673e+06
1194.62	1.78092e+06
1198	1.7768e+06
1201.38	1.77394e+06
1204.75	1.77171e+06
1208.12	1.76796e+06
1211.5	1.76526e+06
1214.87	1.75887e+06
1218.25	1.7577e+06
1221.62	1.74946e+06
1225	1.7469e+06
1228.37	1.7487e+06
1231.75	1.74482e+06
1235.12	1.74407e+06
1238.5	1.73885e+06
1241.87	1.73328e+06
1245.25	1.73139e+06
1248.62	1.73129e+06
1252	1.7312e+06
1255.37	1.72649e+06
1258.75	1.72229e+06
1262.12	1.72246e+06
1265.5	1.72416e+06
1268.87	1.72329e+06
1272.25	1.7197e+06
1275.62	1.7178e+06
1279	1.72041e+06
1282.37	1.71602e+06
1285.74	1.72012e+06
