Measurement: Raman, 780 nm, unoriented, Raman Data RAW
Mineral: Diopside
Rruff sample: R060276
Ideal chemistry: CaMgSi_2_O_6_
Locality: Inagli, Yakutia, Siberia, Russia
Source: Herb Obodda
Description: Transparent green cleavage fragment
Measured chemistry: (Ca_0.97_Na_0.03_)_Σ=1_(Mg_0.96_Fe_0.03_Cr_0.01_)_Σ=1_(Si_1.98_Al_0.02_)_Σ=2_O_6_
Raman shift (cm-1)	intensity
123.835	2.76995e+06
127.21	2.781e+06
130.585	2.79051e+06
133.959	2.79868e+06
137.334	2.80221e+06
140.709	2.81017e+06
144.084	2.81861e+06
147.459	2.827e+06
150.834	2.83363e+06
154.208	2.83652e+06
157.583	2.84222e+06
160.958	2.84699e+06
164.333	2.85384e+06
167.708	2.85633e+06
171.083	2.8569e+06
174.457	2.8616e+06
177.832	2.86709e+06
181.207	2.86999e+06
184.582	2.87308e+06
187.957	2.87834e+06
191.331	2.88306e+06
194.706	2.88839e+06
198.081	2.88736e+06
201.456	2.88716e+06
204.831	2.89064e+06
208.205	2.89297e+06
211.58	2.89419e+06
214.955	2.89534e+06
218.33	2.8973e+06
221.705	2.90069e+06
225.079	2.90191e+06
228.454	2.90245e+06
231.829	2.90535e+06
235.204	2.90719e+06
238.579	2.90936e+06
241.954	2.90772e+06
245.328	2.9076e+06
248.703	2.90955e+06
252.078	2.9065e+06
255.453	2.90452e+06
258.828	2.90774e+06
262.202	2.90939e+06
265.577	2.90986e+06
268.952	2.90506e+06
272.327	2.90466e+06
275.702	2.90315e+06
279.077	2.90149e+06
282.451	2.90082e+06
285.826	2.8989e+06
289.201	2.89654e+06
292.576	2.89366e+06
295.951	2.89254e+06
299.325	2.89205e+06
302.7	2.89015e+06
306.075	2.88889e+06
309.45	2.8898e+06
312.825	2.8872e+06
316.2	2.88454e+06
319.574	2.88136e+06
322.949	2.88471e+06
326.324	2.87932e+06
329.699	2.87879e+06
333.074	2.87196e+06
336.449	2.87142e+06
339.823	2.87202e+06
343.198	2.87278e+06
346.573	2.86947e+06
349.948	2.86784e+06
353.323	2.8662e+06
356.697	2.86656e+06
360.072	2.86529e+06
363.447	2.86627e+06
366.822	2.86485e+06
370.197	2.8661e+06
373.572	2.8585e+06
376.946	2.8553e+06
380.321	2.85013e+06
383.696	2.85055e+06
387.071	2.85235e+06
390.446	2.8503e+06
393.82	2.84876e+06
397.195	2.8509e+06
400.57	2.8528e+06
403.945	2.85407e+06
407.32	2.85427e+06
410.695	2.85275e+06
414.069	2.85198e+06
417.444	2.84857e+06
420.819	2.8507e+06
424.194	2.85044e+06
427.569	2.8507e+06
430.943	2.85596e+06
434.318	2.85418e+06
437.693	2.85296e+06
441.068	2.85211e+06
444.443	2.85616e+06
447.817	2.85649e+06
451.192	2.85443e+06
454.567	2.853e+06
457.942	2.85455e+06
461.317	2.85402e+06
464.692	2.85466e+06
468.066	2.85685e+06
471.441	2.85542e+06
474.816	2.8537e+06
478.191	2.85172e+06
481.566	2.85296e+06
484.94	2.8506e+06
488.315	2.84905e+06
491.69	2.84917e+06
495.065	2.84719e+06
498.44	2.84228e+06
501.815	2.83812e+06
505.189	2.83798e+06
508.564	2.83443e+06
511.939	2.83431e+06
515.314	2.83273e+06
518.689	2.82689e+06
522.063	2.82345e+06
525.438	2.81836e+06
528.813	2.82057e+06
532.188	2.82073e+06
535.563	2.81744e+06
538.938	2.81452e+06
542.312	2.81377e+06
545.687	2.80783e+06
549.062	2.80565e+06
552.437	2.80944e+06
555.812	2.80804e+06
559.186	2.80642e+06
562.561	2.80469e+06
565.936	2.80232e+06
569.311	2.79985e+06
572.686	2.7953e+06
576.061	2.7942e+06
579.435	2.79254e+06
582.81	2.78818e+06
586.185	2.79215e+06
589.56	2.78801e+06
592.935	2.78348e+06
596.309	2.77649e+06
599.684	2.77492e+06
603.059	2.77373e+06
606.434	2.77419e+06
609.809	2.76935e+06
613.183	2.76772e+06
616.558	2.76663e+06
619.933	2.75864e+06
623.308	2.75538e+06
626.683	2.75686e+06
630.058	2.75672e+06
633.432	2.75629e+06
636.807	2.75322e+06
640.182	2.75079e+06
643.557	2.74574e+06
646.932	2.73993e+06
650.307	2.73464e+06
653.681	2.73027e+06
657.056	2.72558e+06
660.431	2.72747e+06
663.806	2.7217e+06
667.181	2.72334e+06
670.555	2.71871e+06
673.93	2.71723e+06
677.305	2.71353e+06
680.68	2.71094e+06
684.055	2.70379e+06
687.429	2.70216e+06
690.804	2.69481e+06
694.179	2.69633e+06
697.554	2.69209e+06
700.929	2.68704e+06
704.304	2.68308e+06
707.678	2.68165e+06
711.053	2.67891e+06
714.428	2.67544e+06
717.803	2.67378e+06
721.178	2.67703e+06
724.553	2.67149e+06
727.927	2.66711e+06
731.302	2.66605e+06
734.677	2.65951e+06
738.052	2.65589e+06
741.427	2.65193e+06
744.801	2.65262e+06
748.176	2.64774e+06
751.551	2.64811e+06
754.926	2.64144e+06
758.301	2.64225e+06
761.676	2.64142e+06
765.05	2.6365e+06
768.425	2.63049e+06
771.8	2.62996e+06
775.175	2.62506e+06
778.55	2.62255e+06
781.924	2.6198e+06
785.299	2.61974e+06
788.674	2.62184e+06
792.049	2.61944e+06
795.424	2.61728e+06
798.798	2.6125e+06
802.173	2.60996e+06
805.548	2.60692e+06
808.923	2.6078e+06
812.298	2.60182e+06
815.673	2.59946e+06
819.047	2.60094e+06
822.422	2.59935e+06
825.797	2.60022e+06
829.172	2.59516e+06
832.547	2.59398e+06
835.921	2.59261e+06
839.296	2.58986e+06
842.671	2.58626e+06
846.046	2.58645e+06
849.421	2.58116e+06
852.795	2.58085e+06
856.17	2.57718e+06
859.545	2.57525e+06
862.92	2.56778e+06
866.295	2.5605e+06
869.67	2.55909e+06
873.044	2.55689e+06
876.419	2.55279e+06
879.794	2.54953e+06
883.169	2.54934e+06
886.544	2.54571e+06
889.918	2.53236e+06
893.293	2.53102e+06
896.668	2.52364e+06
900.043	2.52468e+06
903.418	2.52259e+06
906.793	2.51414e+06
910.167	2.51104e+06
913.542	2.51131e+06
916.917	2.50937e+06
920.292	2.50684e+06
923.667	2.49864e+06
927.042	2.49322e+06
930.416	2.49282e+06
933.791	2.48684e+06
937.166	2.48594e+06
940.541	2.48251e+06
943.916	2.48103e+06
947.29	2.47774e+06
950.665	2.46981e+06
954.04	2.46711e+06
957.415	2.46573e+06
960.79	2.46426e+06
964.164	2.45554e+06
967.539	2.456e+06
970.914	2.45171e+06
974.289	2.4519e+06
977.664	2.4438e+06
981.039	2.44047e+06
984.413	2.43487e+06
987.788	2.43303e+06
991.163	2.43546e+06
994.538	2.4301e+06
997.913	2.42793e+06
1001.29	2.42317e+06
1004.66	2.42e+06
1008.04	2.41482e+06
1011.41	2.41613e+06
1014.79	2.41271e+06
1018.16	2.41095e+06
1021.54	2.40837e+06
1024.91	2.40626e+06
1028.29	2.40291e+06
1031.66	2.39844e+06
1035.04	2.39875e+06
1038.41	2.39827e+06
1041.79	2.39019e+06
1045.16	2.38955e+06
1048.54	2.38569e+06
1051.91	2.3828e+06
1055.29	2.37767e+06
1058.66	2.36584e+06
1062.03	2.36582e+06
1065.41	2.36286e+06
1068.78	2.3584e+06
1072.16	2.35894e+06
1075.53	2.35541e+06
1078.91	2.34982e+06
1082.28	2.3479e+06
1085.66	2.3441e+06
1089.03	2.33983e+06
1092.41	2.33233e+06
1095.78	2.32333e+06
1099.16	2.32155e+06
1102.53	2.32163e+06
1105.91	2.31673e+06
1109.28	2.31711e+06
1112.66	2.31298e+06
1116.03	2.30822e+06
1119.41	2.30127e+06
1122.78	2.30138e+06
1126.16	2.29925e+06
1129.53	2.29812e+06
1132.9	2.29366e+06
1136.28	2.29262e+06
1139.65	2.29029e+06
1143.03	2.28977e+06
1146.4	2.28402e+06
1149.78	2.28381e+06
1153.15	2.28068e+06
1156.53	2.27887e+06
1159.9	2.27903e+06
1163.28	2.28033e+06
1166.65	2.27407e+06
1170.03	2.27595e+06
1173.4	2.27437e+06
1176.78	2.26936e+06
1180.15	2.26972e+06
1183.53	2.26307e+06
1186.9	2.26026e+06
1190.28	2.26073e+06
1193.65	2.25611e+06
1197.03	2.25422e+06
1200.4	2.24296e+06
1203.78	2.24349e+06
1207.15	2.24094e+06
1210.53	2.2399e+06
1213.9	2.23654e+06
1217.28	2.23196e+06
1220.65	2.21943e+06
1224.03	2.21702e+06
1227.4	2.2168e+06
1230.78	2.21292e+06
1234.15	2.21078e+06
1237.53	2.20056e+06
1240.9	2.19303e+06
1244.27	2.18878e+06
1247.65	2.18808e+06
1251.02	2.18333e+06
1254.4	2.17873e+06
1257.77	2.17994e+06
1261.15	2.18044e+06
1264.52	2.18034e+06
1267.9	2.17415e+06
1271.27	2.16955e+06
1274.65	2.1674e+06
1278.02	2.17379e+06
1281.4	2.17241e+06
1284.77	2.17097e+06
