Measurement: Raman, 532 nm, unoriented, Raman Data Processed
Mineral: Djerfisherite
Rruff sample: R070390
Ideal chemistry: K_6_(Fe,Cu,Ni)_25_S_26_Cl
Locality: Noril'sk, Putoran Mts, Taymyrskiy Autonomous Okrug, Eastern-Siberian Region, Russia
Source: Michael Scott
Description: Grey metallic blebs in a prepared polished slab
Raman shift (cm-1)	intensity
139.055	0
142.43	34.1901
145.805	11.3268
149.18	1.42096
152.554	72.3546
155.929	37.7923
159.304	56.0591
162.679	81.7277
166.054	75.0135
169.429	61.5316
172.803	64.9113
176.178	26.8709
179.553	67.4141
182.928	57.4242
186.303	69.3214
189.678	71.0734
193.052	51.6631
196.427	56.6444
199.802	66.4422
203.177	59.435
206.552	33.7766
209.926	49.4784
213.301	58.4742
216.676	42.904
220.051	21.2127
223.426	24.3812
226.8	13.872
230.175	8.05312
233.55	12.1584
236.925	20.1208
240.3	27.7566
243.675	8.24002
247.049	1.36438
250.424	4.21217
253.799	8.23537
257.174	16.4113
260.549	31.9435
263.923	33.7624
267.298	17.62
270.673	1.90808
274.048	12.0944
277.423	14.4757
280.798	0.477921
284.173	2.19772
287.547	12.6801
290.922	3.73425
294.297	29.878
297.672	4.98901
301.046	21.8813
304.421	9.9651
307.796	14.8556
311.171	33.3425
314.546	3.31607
317.921	31.8423
321.295	33.4607
324.67	41.6128
328.045	53.2704
331.42	5.90796
334.795	15.1906
338.17	18.0853
341.544	31.0808
344.919	18.2223
348.294	37.2654
351.669	31.1744
355.044	12.1127
358.418	35.5164
361.793	10.7789
365.168	28.2605
368.543	12.0694
371.918	9.18961
375.293	19.5119
378.667	16.4379
382.042	11.7376
385.417	13.2587
388.792	24.8424
392.167	10.9428
395.541	11.5482
398.916	10.7161
402.291	10.8728
405.666	41.2065
409.041	20.8006
412.416	25.0172
415.79	20.5115
419.165	50.0111
422.54	21.7084
425.915	35.1688
429.29	18.9602
432.664	23.941
436.039	5.60295
439.414	14.8715
442.789	12.0584
446.164	20.7759
449.538	33.6074
452.913	11.3204
456.288	27.1168
459.663	26.7007
463.038	13.0662
466.413	22.6985
469.787	14.9112
473.162	37.459
476.537	46.411
479.912	30.341
483.287	46.3258
486.661	46.4232
490.036	47.0296
493.411	46.3638
496.786	7.71017
500.161	9.30461
503.536	12.8402
506.911	20.1484
510.285	0.605316
513.66	17.6558
517.035	3.35319
520.41	1.30501
523.784	8.66881
527.159	22.1777
530.534	12.4325
533.909	11.8992
537.284	22.8011
540.659	11.3501
544.033	13.0052
547.408	7.70299
550.783	31.5056
554.158	30.5465
557.533	20.5969
560.908	30.8647
564.282	30.2862
567.657	30.2602
571.032	12.0099
574.407	16.4198
577.782	43.2039
581.156	9.83287
584.531	21.8248
587.906	34.8952
591.281	12.8491
594.656	15.8755
598.031	13.5673
601.405	13.072
604.78	15.4918
608.155	16.6752
611.53	2.44446
614.905	10.6172
618.279	7.0502
621.654	18.8184
625.029	20.0266
628.404	14.3314
631.779	4.02483
635.154	20.5341
638.528	10.1712
641.903	21.2706
645.278	9.3618
648.653	21.4007
652.028	16.0055
655.403	31.4597
658.777	27.0658
662.152	9.1595
665.527	11.4792
668.902	13.7682
672.277	16.9114
675.651	26.1864
679.026	15.9463
682.401	6.23711
685.776	14.5964
689.151	15.3013
692.525	25.0784
695.9	41.3319
699.275	13.1172
702.65	21.1218
706.025	18.2837
709.399	10.7706
712.774	10.6273
716.149	14.3353
719.524	12.6027
722.899	11.585
726.274	14.0162
729.648	30.7525
733.023	28.764
736.398	5.79456
739.773	14.2198
743.148	30.0207
746.523	20.2529
749.897	0.963028
753.272	29.1928
756.647	32.7688
760.022	17.1553
763.397	10.7686
766.771	10.9074
770.146	23.5726
773.521	35.8068
776.896	6.95537
780.271	30.5906
783.646	10.0946
787.02	20.9053
790.395	40.1347
793.77	29.7022
797.145	22.375
800.52	19.8418
803.894	23.8474
807.269	13.8722
810.644	5.6524
814.019	0.694099
817.394	41.5915
820.769	11.7962
824.143	15.0569
827.518	25.8207
830.893	24.4174
834.268	22.4229
837.643	16.798
841.018	31.5424
844.392	8.94704
847.767	25.8454
851.142	31.8803
854.517	6.0549
857.891	15.5385
861.266	28.4402
864.641	30.8352
868.016	24.8111
871.391	10.5573
874.766	36.4064
878.14	14.2309
881.515	34.6393
884.89	15.4356
888.265	34.5964
891.64	7.03214
895.015	18.8448
898.389	18.6042
901.764	27.6447
905.139	19.2477
908.514	37.9855
911.889	17.0342
915.264	24.0364
918.638	26.7535
922.013	15.1292
925.388	8.70973
928.763	23.564
932.138	13.0438
935.512	23.8347
938.887	3.54039
942.262	18.5953
945.637	11.6244
949.012	16.5263
952.386	11.6716
955.761	41.9652
959.136	26.2153
962.511	1.77515
965.886	9.16824
969.261	0.048126
972.635	22.931
976.01	32.5128
979.385	26.4392
982.76	33.4438
986.135	10.6758
989.51	13.9924
992.884	19.0122
996.259	27.6474
999.634	14.5599
1003.01	18.2009
1006.38	22.4176
1009.76	9.42462
1013.13	20.518
1016.51	26.8092
1019.88	12.6315
1023.26	9.35458
1026.63	15.4247
1030.01	20.4513
1033.38	22.6181
1036.76	1.31917
1040.13	18.9203
1043.51	17.5398
1046.88	38.779
1050.26	27.5699
1053.63	32.8716
1057.01	7.73741
1060.38	12.1298
1063.76	23.0704
1067.13	11.122
1070.51	14.7435
1073.88	12.8912
1077.26	6.66574
1080.63	27.8375
1084	34.4928
1087.38	31.8367
1090.75	7.77068
1094.13	6.58644
1097.5	15.8214
1100.88	30.5545
1104.25	0.050537
1107.63	1.32396
1111	43.2287
1114.38	0.619568
1117.75	11.4466
1121.13	24.0567
1124.5	19.9334
1127.88	29.9535
1131.25	2.63753
1134.63	9.76143
1138	18.7007
1141.38	23.1007
1144.75	0.148163
1148.13	13.7749
1151.5	2.98625
1154.88	29.5047
1158.25	16.0928
1161.62	14.1352
1165	21.908
1168.38	2.17642
1171.75	27.1507
1175.12	22.8529
1178.5	27.282
1181.87	37.5762
1185.25	2.90494
1188.62	18.1277
1192	28.9938
1195.37	8.10585
1198.75	39.79
1202.12	21.5587
1205.5	17.4726
1208.87	32.4443
1212.25	6.30515
1215.62	32.5025
1219	31.4065
1222.37	17.4829
1225.75	9.9453
1229.12	17.5619
1232.5	21.0444
1235.87	5.94923
1239.25	14.534
1242.62	0.851028
1246	23.1747
1249.37	12.5875
1252.74	18.3269
1256.12	22.8311
1259.49	34.2876
1262.87	35.5316
1266.24	30.372
1269.62	10.4031
1272.99	35.1602
1276.37	15.4309
1279.74	0.505814
1283.12	7.14825
1286.49	21.0355
1289.87	22.0823
1293.24	21.5655
1296.62	10.1322
1299.99	27.6081
1303.37	7.88156
1306.74	3.98375
1310.12	13.01
