Measurement: Raman, 785 nm, unoriented, Raman Data Processed
Mineral: Djerfisherite
Rruff sample: R070390
Ideal chemistry: K_6_(Fe,Cu,Ni)_25_S_26_Cl
Locality: Noril'sk, Putoran Mts, Taymyrskiy Autonomous Okrug, Eastern-Siberian Region, Russia
Source: Michael Scott
Description: Grey metallic blebs in a prepared polished slab
Raman shift (cm-1)	intensity
159.107	0
161.999	62.9972
164.892	226.581
167.785	136.83
170.677	138.327
173.57	125.69
176.463	30.1081
179.356	35.7482
182.248	4.70019
185.141	44.4017
188.034	102.528
190.926	57.1993
193.819	42.8413
196.712	58.7863
199.604	5.42529
202.497	45.9377
205.39	36.2485
208.282	24.9008
211.175	2.19531
214.068	2.92371
216.961	11.2538
219.853	1.57324
222.746	31.5005
225.639	34.1638
228.531	40.1811
231.424	26.7947
234.317	29.2465
237.209	50.3624
240.102	74.329
242.995	80.1367
245.888	74.4521
248.78	79.9502
251.673	76.191
254.566	101.141
257.458	72.6843
260.351	57.464
263.244	42.1168
266.137	45.1214
269.029	62.4143
271.922	69.1161
274.815	58.833
277.707	62.6504
280.6	37.8736
283.493	39.6947
286.385	46.6393
289.278	37.1155
292.171	36.0375
295.063	27.2608
297.956	27.4174
300.849	26.5213
303.742	35.5838
306.634	47.9711
309.527	24.8806
312.42	42.2452
315.312	37.7672
318.205	35.0558
321.098	25.7931
323.99	17.4801
326.883	23.0067
329.776	12.7464
332.669	8.52087
335.561	18.3446
338.454	19.2245
341.347	5.7321
344.239	22.4624
347.132	21.1055
350.025	3.16717
352.918	5.55666
355.81	22.2784
358.703	5.90773
361.596	0.361069
364.488	9.27295
367.381	1.1143
370.274	0.402359
373.166	12.9539
376.059	5.05983
378.952	2.69673
381.844	15.2386
384.737	0.72197
387.63	18.4465
390.523	4.64348
393.415	0.095261
396.308	10.3321
399.201	5.75427
402.093	3.68492
404.986	6.78586
407.879	3.65779
410.772	0.389923
413.664	18.4438
416.557	2.00848
419.45	6.83011
422.342	12.9851
425.235	14.7818
428.128	16.251
431.02	17.1979
433.913	21.7605
436.806	19.0878
439.699	21.2414
442.591	14.198
445.484	10.68
448.377	21.5922
451.269	15.6708
454.162	9.6416
457.055	22.9683
459.947	25.2854
462.84	14.4198
465.733	24.3301
468.625	20.0581
471.518	26.7124
474.411	32.2773
477.304	14.2829
480.196	34.4764
483.089	16.4277
485.982	19.3724
488.874	17.8124
491.767	16.1905
494.66	5.86328
497.553	0.877991
500.445	9.61592
503.338	17.6462
506.231	12.0386
509.123	8.28279
512.016	10.9077
514.909	8.12827
517.802	2.91832
520.694	9.59763
523.587	4.45331
526.48	20.4591
529.372	5.30101
532.265	18.9245
535.158	13.077
538.05	12.1236
540.943	15.2701
543.836	11.0141
546.729	13.9466
549.621	9.40764
552.514	5.50833
555.407	11.4509
558.299	7.09842
561.192	13.6148
564.085	16.8413
566.977	8.94749
569.87	6.38971
572.763	20.8593
575.655	17.0523
578.548	7.99681
581.441	6.77295
584.333	1.21376
587.226	8.39883
590.119	4.06885
593.012	20.23
595.904	18.8548
598.797	15.6237
601.69	20.3451
604.582	27.0315
607.475	3.47308
610.368	8.47435
613.26	13.3621
616.153	19.653
619.046	9.11325
621.939	12.7732
624.831	1.0416
627.724	9.90447
630.617	8.80327
633.509	6.84438
636.402	6.53503
639.295	8.37451
642.188	7.49501
645.08	10.1246
647.973	14.2825
650.866	10.3766
653.758	2.55829
656.651	0.844788
659.544	4.2569
662.436	9.345
665.329	3.11911
668.222	4.77171
671.115	3.65228
674.007	11.9561
676.9	5.71452
679.793	15.4444
682.685	8.22768
685.578	11.5794
688.471	24.4989
691.363	6.34944
694.256	3.18382
697.149	10.7261
700.042	8.23117
702.934	5.2673
705.827	14.7819
708.72	5.80788
711.612	10.4982
714.505	0.733551
717.398	16.1107
720.29	7.25742
723.183	7.43722
726.076	6.66911
728.968	15.4567
731.861	1.45763
734.754	9.76549
737.647	0.109161
740.539	15.2669
743.432	10.4632
746.325	5.12383
749.217	11.5953
752.11	5.01964
755.003	5.15019
757.895	16.4664
760.788	0.003784
763.681	5.59718
766.574	9.95837
769.466	10.8758
772.359	12.0805
775.252	1.68622
778.144	15.7259
781.037	3.60323
783.93	16.2825
786.822	2.24991
789.715	4.56682
792.608	10.0802
795.501	7.30006
798.393	10.119
801.286	18.0393
804.179	1.03123
807.071	10.9991
809.964	8.38623
812.857	7.45265
815.75	17.0798
818.642	11.4452
821.535	16.8505
824.428	18.8487
827.32	0.169098
830.213	10.0274
833.106	6.73264
835.998	18.3139
838.891	7.08505
841.784	1.0217
844.677	12.6611
847.569	2.9785
850.462	7.8669
853.355	12.5461
856.247	10.2951
859.14	19.3453
862.033	11.0628
864.925	23.6888
867.818	16.1082
870.711	17.2672
873.604	8.86076
876.496	23.8525
879.389	12.877
882.282	4.78123
885.174	15.1321
888.067	12.2371
890.96	14.9249
893.852	16.589
896.745	5.2252
899.638	10.1932
902.53	17.3561
905.423	5.44087
908.316	21.4263
911.209	11.6804
914.101	7.31635
916.994	6.4677
919.887	7.22852
922.779	15.4672
925.672	22.4717
928.565	2.93298
931.457	12.237
934.35	10.2321
937.243	2.63139
940.136	14.848
943.028	4.91736
945.921	7.28805
948.814	3.66716
951.706	18.2412
954.599	11.6973
957.492	9.88889
960.385	4.2285
963.277	10.6441
966.17	7.45996
969.063	16.3516
971.955	12.58
974.848	8.14018
977.741	12.6011
980.633	11.6326
983.526	5.6429
986.419	10.5989
989.312	12.5033
992.204	1.23871
995.097	15.9716
997.99	22.3939
1000.88	9.25481
1003.77	8.80003
1006.67	5.39801
1009.56	9.79248
1012.45	1.88661
1015.35	16.6138
1018.24	1.65944
1021.13	17.6399
1024.02	19.2203
1026.92	9.58986
1029.81	9.91119
1032.7	4.41779
1035.6	11.443
1038.49	7.98631
1041.38	14.9317
1044.27	2.2585
1047.17	20.733
1050.06	14.6281
1052.95	24.2436
1055.84	9.41827
1058.74	11.3112
1061.63	3.58763
1064.52	12.0743
1067.41	8.27635
1070.31	11.4351
1073.2	7.18651
1076.09	13.5656
1078.98	7.55244
1081.88	12.9028
1084.77	12.9412
1087.66	15.7331
1090.56	18.2169
1093.45	17.088
1096.34	19.063
1099.23	10.1961
1102.13	16.1602
1105.02	2.22871
1107.91	1.77788
1110.81	13.1036
1113.7	5.71178
1116.59	8.43127
1119.48	19.3065
1122.38	16.4588
1125.27	6.77353
1128.16	17.0708
1131.05	5.29803
1133.95	8.65555
1136.84	0.284058
1139.73	16.3123
1142.62	15.5286
1145.52	12.1728
1148.41	7.21889
1151.3	2.24791
1154.19	5.82646
1157.09	1.32902
1159.98	12.9035
1162.87	9.76306
1165.77	3.0119
1168.66	4.88641
1171.55	11.7645
1174.44	16.7913
1177.34	21.0844
1180.23	9.1098
1183.12	11.8573
1186.02	6.07678
1188.91	19.7343
1191.8	13.0546
1194.69	5.94887
1197.59	7.17323
1200.48	8.32036
1203.37	0.580109
1206.26	17.5823
1209.16	8.3849
1212.05	8.76169
1214.94	13.7497
1217.84	6.27339
1220.73	12.2586
1223.62	8.95296
1226.51	12.7143
1229.41	0.375366
