Measurement: Raman, 532 nm, unoriented, Raman Data Processed
Mineral: Djurleite
Rruff sample: R070333
Ideal chemistry: Cu_31_S_16_
Locality: Cornwall, England
Source: Michael Scott
Description: Aggregate of black metallic prismatic crystals with bluish tarnish
Measured chemistry: Cu_30.75_S_16_ = Cu_1.92_S
Raman shift (cm-1)	intensity
146.162	0
149.054	27.9965
151.947	25.188
154.84	31.2946
157.732	33.9175
160.625	73.334
163.518	23.1956
166.411	18.7886
169.303	5.38953
172.196	40.8337
175.089	20.0916
177.981	33.8749
180.874	13.9508
183.767	2.62642
186.659	9.22226
189.552	0.63118
192.445	19.5498
195.338	38.105
198.23	6.2744
201.123	32.247
204.016	5.42041
206.908	43.6444
209.801	5.48383
212.694	0.29184
215.586	37.3911
218.479	47.1321
221.372	16.2452
224.264	54.6133
227.157	45.2802
230.05	42.2533
232.943	25.3149
235.835	6.18192
238.728	42.9411
241.621	52.6982
244.513	43.8091
247.406	24.9658
250.299	34.4285
253.191	41.7192
256.084	31.7567
258.977	51.7488
261.87	55.5031
264.762	30.1765
267.655	48.1516
270.548	83.8832
273.44	33.6946
276.333	45.5697
279.226	31.1015
282.118	65.7988
285.011	64.7366
287.904	42.9433
290.796	95.058
293.689	48.0976
296.582	82.9151
299.475	52.311
302.367	91.7852
305.26	79.9022
308.153	86.2655
311.045	80.7318
313.938	80.7772
316.831	105.876
319.724	86.8408
322.616	31.2144
325.509	49.5514
328.402	80.3601
331.294	48.5615
334.187	12.834
337.08	49.9568
339.972	26.6274
342.865	28.8297
345.758	37.5945
348.651	35.946
351.543	24.7066
354.436	10.9379
357.329	1.63538
360.221	8.9494
363.114	1.81207
366.007	10.2762
368.899	14.0546
371.792	34.9788
374.685	21.8575
377.577	18.2448
380.47	1.92348
383.363	17.9477
386.256	13.5946
389.148	15.1302
392.041	12.9711
394.934	21.5888
397.826	5.78389
400.719	28.604
403.612	21.7984
406.505	20.4172
409.397	20.9836
412.29	23.0066
415.183	27.0935
418.075	48.6121
420.968	33.2007
423.861	4.39287
426.753	27.3426
429.646	20.6809
432.539	9.91226
435.432	11.5047
438.324	40.7691
441.217	34.5026
444.11	28.9689
447.002	49.5188
449.895	19.2521
452.788	31.2176
455.68	46.3157
458.573	17.0841
461.466	28.5163
464.358	26.1355
467.251	53.7335
470.144	44.9718
473.037	56.4767
475.929	42.4034
478.822	17.7176
481.715	30.3132
484.607	36.9241
487.5	20.4879
490.393	29.6416
493.286	31.0608
496.178	31.251
499.071	15.6802
501.964	8.64481
504.856	26.9016
507.749	12.0927
510.642	20.6481
513.534	21.7953
516.427	27.554
519.32	35.6371
522.212	27.9063
525.105	17.2184
527.998	35.9671
530.891	32.039
533.783	33.136
536.676	29.18
539.569	18.4713
542.461	14.4084
545.354	10.8625
548.247	22.8253
551.139	34.8062
554.032	35.1902
556.925	2.66394
559.818	29.1154
562.71	17.5627
565.603	19.2247
568.496	9.36256
571.388	25.6444
574.281	24.4128
577.174	1.03824
580.067	21.9336
582.959	24.5389
585.852	26.931
588.745	4.40906
591.637	20.3313
594.53	1.11961
597.423	0.188522
600.315	14.3457
603.208	30.4801
606.101	23.7984
608.994	7.93782
611.886	31.5001
614.779	13.7222
617.672	7.37442
620.564	16.6339
623.457	28.9214
626.35	31.6614
629.242	31.4291
632.135	1.69017
635.028	36.1457
637.92	24.8865
640.813	10.922
643.706	7.22032
646.599	13.6007
649.491	10.0975
652.384	10.1363
655.277	29.3669
658.169	1.62141
661.062	37.7779
663.955	20.7645
666.847	9.94522
669.74	3.19287
672.633	16.704
675.525	2.6752
678.418	11.8174
681.311	17.2756
684.204	37.2619
687.096	23.3221
689.989	24.1272
692.882	1.96033
695.774	19.161
698.667	15.4215
701.56	1.43391
704.452	34.6181
707.345	22.3087
710.238	15.3901
713.131	32.6347
716.023	21.388
718.916	16.2768
721.809	14.1523
724.701	19.2042
727.594	28.3277
730.487	5.47099
733.38	5.80067
736.272	20.4298
739.165	22.6126
742.058	33.5736
744.95	13.7925
747.843	10.2115
750.736	32.9693
753.628	20.1483
756.521	23.27
759.414	31.6572
762.307	6.46156
765.199	24.4536
768.092	2.13385
770.985	19.9338
773.877	40.7519
776.77	27.5518
779.663	24.6567
782.555	34.2299
785.448	0.750443
788.341	20.9094
791.234	42.1935
794.126	43.5872
797.019	17.7566
799.912	15.173
802.804	36.9682
805.697	6.82716
808.59	7.56921
811.482	15.74
814.375	1.9687
817.268	24.2335
820.16	30.29
823.053	27.4864
825.946	17.71
828.839	18.8859
831.731	10.3961
834.624	5.5693
837.517	27.9721
840.409	1.06599
843.302	28.8036
846.195	30.2045
849.087	13.6741
851.98	17.4597
854.873	2.24945
857.766	11.9414
860.658	22.5196
863.551	23.1603
866.444	14.6726
869.336	0.089752
872.229	27.2203
875.122	22.8949
878.014	24.7641
880.907	28.5203
883.8	26.309
886.693	17.9645
889.585	15.1518
892.478	15.8756
895.371	3.70464
898.263	40.7851
901.156	7.5613
904.049	14.3405
906.942	37.021
909.834	22.211
912.727	38.1863
915.62	24.3959
918.512	30.4701
921.405	27.1705
924.298	34.5341
927.19	11.6897
930.083	20.962
932.976	37.0379
935.869	30.4034
938.761	14.7561
941.654	4.8277
944.547	5.14732
947.439	23.8795
950.332	3.94629
953.225	19.0193
956.117	15.8782
959.01	15.2589
961.903	15.1147
964.795	38.2996
967.688	19.4552
970.581	6.01128
973.474	5.91512
976.366	1.6149
979.259	14.322
982.152	17.4532
985.044	7.55276
987.937	29.2872
990.83	12.1139
993.722	14.5201
996.615	37.2287
999.508	28.1577
1002.4	31.3866
1005.29	33.753
1008.19	27.9781
1011.08	21.6297
1013.97	10.4245
1016.86	13.5488
1019.76	11.0845
1022.65	32.808
1025.54	14.1549
1028.43	9.32228
1031.33	36.6518
1034.22	47.8978
1037.11	25.7132
1040.01	2.82492
1042.9	16.4551
1045.79	3.233
1048.68	14.7101
1051.58	13.8738
1054.47	3.84029
1057.36	28.863
1060.26	19.9923
1063.15	30.4197
1066.04	22.9176
1068.93	25.2649
1071.83	15.9222
1074.72	2.86824
1077.61	7.36032
1080.5	24.3523
1083.4	11.2781
1086.29	20.8434
1089.18	19.3085
1092.07	26.3114
1094.97	0.441971
1097.86	20.9262
1100.75	23.22
1103.64	21.9438
1106.54	19.2816
1109.43	24.1417
1112.32	15.3224
1115.22	18.7555
1118.11	24.8951
1121	23.0819
1123.89	19.6171
1126.79	21.7795
1129.68	16.0425
1132.57	13.2019
1135.46	24.173
1138.36	28.413
1141.25	0.774323
1144.14	43.5032
1147.04	18.4563
1149.93	31.6199
1152.82	1.21985
1155.71	10.2738
1158.61	0.518387
1161.5	22.0721
1164.39	9.04564
1167.28	14.3929
1170.18	36.169
1173.07	11.5537
1175.96	22.5657
1178.86	30.2292
1181.75	13.0536
1184.64	24.9523
1187.53	38.4145
1190.43	8.68417
1193.32	20.2537
1196.21	21.4307
1199.1	25.2928
1202	20.5756
1204.89	37.4556
1207.78	27.038
1210.67	26.3185
1213.57	20.2456
1216.46	20.2528
1219.35	18.8362
1222.25	14.782
1225.14	16.1113
1228.03	35.3417
1230.92	27.7933
1233.82	4.0536
1236.71	16.3411
1239.6	33.4851
1242.49	23.6863
1245.39	14.3215
1248.28	29.5725
1251.17	20.884
1254.07	20.8875
1256.96	39.8543
1259.85	52.3
1262.74	40.9091
1265.64	7.9754
1268.53	15.422
1271.42	34.8544
1274.31	38.933
1277.21	25.9996
1280.1	27.7694
1282.99	0.689514
