Measurement: Raman, 780 nm, unoriented, Raman Data Processed
Mineral: Djurleite
Rruff sample: R070333
Ideal chemistry: Cu_31_S_16_
Locality: Cornwall, England
Source: Michael Scott
Description: Aggregate of black metallic prismatic crystals with bluish tarnish
Measured chemistry: Cu_30.75_S_16_ = Cu_1.92_S
Raman shift (cm-1)	intensity
166.289	0
169.181	73.4871
172.074	5.56006
174.967	91.634
177.859	48.3603
180.752	43.1737
183.645	43.2351
186.538	47.2092
189.43	9.5929
192.323	6.65503
195.216	62.4341
198.108	50.1585
201.001	31.9255
203.894	53.9164
206.786	61.4051
209.679	63.9214
212.572	55.3179
215.465	84.1708
218.357	62.2396
221.25	26.833
224.143	51.8176
227.035	95.6575
229.928	66.927
232.821	101.8
235.714	95.5527
238.606	52.3445
241.499	95.1692
244.392	14.0784
247.284	22.8558
250.177	98.1263
253.07	94.2544
255.962	80.2952
258.855	64.8118
261.748	118.602
264.64	60.5866
267.533	75.6963
270.426	68.5656
273.319	49.863
276.211	90.3529
279.104	42.4855
281.997	38.9513
284.889	31.8426
287.782	7.84106
290.675	42.0914
293.567	59.2692
296.46	41.8881
299.353	37.3439
302.246	59.928
305.138	36.0078
308.031	47.2725
310.924	68.9564
313.816	16.4202
316.709	49.8543
319.602	81.153
322.495	87.6769
325.387	67.3159
328.28	18.6904
331.173	37.6636
334.065	23.1124
336.958	52.1298
339.851	75.9879
342.743	57.4789
345.636	8.83679
348.529	49.1362
351.421	13.1848
354.314	24.9919
357.207	80.3191
360.1	57.0863
362.992	18.0703
365.885	11.8191
368.778	54.5325
371.67	6.52356
374.563	27.0493
377.456	21.9814
380.349	8.30237
383.241	46.0917
386.134	1.74988
389.027	43.6213
391.919	35.1473
394.812	54.6294
397.705	10.6047
400.597	70.5824
403.49	28.1763
406.383	36.0447
409.276	59.8336
412.168	48.3331
415.061	66.0166
417.954	11.8645
420.846	32.4617
423.739	32.9
426.632	17.2902
429.524	36.3422
432.417	55.1575
435.31	29.3798
438.202	9.20252
441.095	29.0266
443.988	13.4652
446.881	39.4451
449.773	10.6243
452.666	35.8218
455.559	13.2272
458.451	9.87036
461.344	47.8467
464.237	38.9302
467.13	24.1205
470.022	3.68591
472.915	48.3307
475.808	13.1876
478.7	40.2562
481.593	72.2538
484.486	29.5316
487.378	40.9586
490.271	29.3697
493.164	45.8486
496.057	50.6132
498.949	42.557
501.842	20.6078
504.735	63.3186
507.627	39.1205
510.52	40.8938
513.413	27.4739
516.305	24.436
519.198	31.7424
522.091	55.4
524.984	16.4334
527.876	43.6237
530.769	37.2144
533.662	1.93823
536.554	21.1104
539.447	7.65723
542.34	0.767822
545.232	46.8848
548.125	24.5829
551.018	10.6408
553.91	32.0862
556.803	58.4387
559.696	9.20117
562.589	25.0604
565.481	13.411
568.374	28.5561
571.267	50.8932
574.159	48.6445
577.052	16.5664
579.945	36.6084
582.837	7.91931
585.73	42.5834
588.623	25.5223
591.516	64.6829
594.408	31.5701
597.301	18.236
600.194	45.0175
603.086	63.1605
605.979	44.7129
608.872	41.3319
611.764	50.27
614.657	46.2716
617.55	11.7461
620.443	71.5138
623.335	26.3416
626.228	28.2261
629.121	29.9215
632.013	74.9371
634.906	49.4989
637.799	20.7261
640.692	53.3093
643.584	26.4442
646.477	42.9807
649.37	63.3784
652.262	17.4652
655.155	22.8206
658.048	27.2719
660.94	46.314
663.833	39.6167
666.726	55.7521
669.619	23.9044
672.511	41.3839
675.404	42.9741
678.297	5.67847
681.189	33.3374
684.082	69.1576
686.975	57.1008
689.867	50.3218
692.76	4.23181
695.653	49.5492
698.545	13.3412
701.438	44.514
704.331	19.3358
707.224	71.8312
710.116	52.0388
713.009	40.8492
715.902	20.9169
718.794	33.3872
721.687	29.4827
724.58	38.6575
727.472	26.5281
730.365	28.286
733.258	16.4141
736.151	22.3518
739.043	31.4421
741.936	4.92896
744.829	12.8688
747.721	59.0395
750.614	9.28821
753.507	32.0279
756.399	60.5751
759.292	59.0324
762.185	23.5529
765.078	36.1327
767.97	55.6647
770.863	54.7821
773.756	6.05774
776.648	36.7937
779.541	27.2554
782.434	61.0718
785.327	1.82837
788.219	29.1541
791.112	20.9635
794.005	26.9955
796.897	13.6209
799.79	43.4249
802.683	33.2246
805.575	35.1381
808.468	46.4508
811.361	23.8662
814.254	12.0615
817.146	5.42761
820.039	69.8865
822.932	35.5042
825.824	44.8259
828.717	64.0192
831.61	42.0714
834.502	61.1432
837.395	47.0209
840.288	28.6786
843.181	3.70593
846.073	26.5414
848.966	50.79
851.859	27.4736
854.751	19.3267
857.644	42.6471
860.537	17.249
863.429	18.1797
866.322	5.36133
869.215	59.4712
872.107	13.6089
875	60.1398
877.893	32.8419
880.786	41.356
883.678	17.1266
886.571	54.9915
889.464	47.4159
892.356	38.0593
895.249	22.8445
898.142	11.1298
901.034	72.7669
903.927	63.9021
906.82	54.6962
909.713	17.4254
912.605	1.22778
915.498	24.6367
918.391	15.4226
921.283	53.7034
924.176	36.8599
927.069	1.54407
929.962	35.771
932.854	30.1139
935.747	56.1425
938.64	40.7909
941.532	44.5161
944.425	13.6555
947.318	39.1484
950.21	22.5991
953.103	45.963
955.996	46.395
958.889	52.9279
961.781	31.7564
964.674	48.2662
967.567	44.8341
970.459	19.9153
973.352	28.3791
976.245	26.2553
979.137	38.2448
982.03	53.5575
984.923	50.7803
987.816	16.7943
990.708	44.6212
993.601	41.1069
996.494	45.9168
999.386	49.0489
1002.28	37.3984
1005.17	7.05957
1008.06	37.1793
1010.96	31.3909
1013.85	44.416
1016.74	59.9812
1019.63	70.7522
1022.53	84.1152
1025.42	48.2111
1028.31	25.8511
1031.21	53.151
1034.1	33.1238
1036.99	90.0029
1039.88	39.1472
1042.78	47.4738
1045.67	45.8652
1048.56	18.0526
1051.45	53.6191
1054.35	7.51099
1057.24	73.5845
1060.13	61.8572
1063.03	60.4377
1065.92	48.6736
1068.81	8.68543
1071.7	6.53894
1074.6	20.0425
1077.49	65.9308
1080.38	38.3868
1083.28	0.48584
1086.17	30.0774
1089.06	21.679
1091.95	47.1719
1094.85	25.7682
1097.74	12.3573
1100.63	30.5804
1103.52	13.6715
1106.42	2.33606
1109.31	23.939
1112.2	33.4298
1115.09	33.9197
1117.99	1.40478
1120.88	61.8868
1123.77	44.4781
1126.66	27.2843
1129.56	38.7689
1132.45	11.4528
1135.34	39.0574
1138.24	54.9946
1141.13	64.0061
1144.02	30.2148
1146.91	55.0354
1149.81	17.6125
1152.7	12.4898
1155.59	32.9197
1158.48	12.7449
1161.38	77.4902
1164.27	37.6833
1167.16	54.0615
1170.06	51.023
1172.95	64.2786
1175.84	20.9829
1178.73	73.241
1181.63	61.7988
1184.52	84.946
1187.41	50.1848
1190.3	42.8352
1193.2	37.3757
1196.09	59.9971
1198.98	12.0459
1201.88	4.75098
1204.77	0.374756
1207.66	17.2324
1210.55	21.5322
1213.45	54.7781
1216.34	42.3713
1219.23	17.5085
1222.12	24.425
1225.02	45.2375
1227.91	47.4475
1230.8	38.0649
1233.69	5.11231
1236.59	67.6963
1239.48	46.4172
1242.37	48.5444
1245.27	42.5952
1248.16	68.4273
1251.05	18.8384
1253.94	3.86792
1256.84	26.7207
1259.73	37.0652
1262.62	85.0881
1265.52	26.3335
1268.41	0.583984
1271.3	21.7473
1274.19	16.8398
1277.09	4.73926
