Measurement: Raman, 532 nm, unoriented, Raman Data Processed
Mineral: Djurleite
Rruff sample: R100173
Ideal chemistry: Cu_31_S_16_
Locality: King Vein, Morenci, Arizona, USA
Source: Steve Young
Description: Gray metallic fragments
Measured chemistry: Cu_30.65_S_16_ = Cu_1.92_S
Raman shift (cm-1)	intensity
194.69	0
197.583	2.66211
200.476	6.3761
203.369	8.27515
206.261	2.92065
209.154	5.14734
212.047	4.77197
214.939	2.00049
217.832	13.7158
220.725	7.22559
223.617	11.7521
226.51	19.8807
229.403	14.6643
232.296	9.61523
235.188	7.6825
238.081	10.907
240.974	16.0912
243.866	16.3286
246.759	17.9296
249.652	20.8394
252.544	20.1003
255.437	17.8497
258.33	17.2794
261.223	17.9403
264.115	18.3859
267.008	21.5643
269.901	26.7291
272.793	24.8795
275.686	24.0804
278.579	14.2064
281.471	20.3997
284.364	21.7175
287.257	28.9159
290.15	26.9387
293.042	29.2123
295.935	25.5952
298.828	27.7684
301.72	32.9211
304.613	28.472
307.506	27.9902
310.399	32.5243
313.291	31.1738
316.184	30.1913
319.077	31.9861
321.969	26.4959
324.862	21.7261
327.755	27.5381
330.647	25.366
333.54	19.0258
336.433	18.5623
339.325	5.38684
342.218	10.8335
345.111	8.8634
348.004	5.82629
350.896	7.46338
353.789	5.81628
356.682	7.97156
359.574	10.6285
362.467	0.683838
365.36	0.733276
368.253	4.77795
371.145	2.33337
374.038	0.508301
376.931	3.02307
379.823	8.08008
382.716	1.5448
385.609	0.438843
388.502	0.217163
391.394	7.00928
394.287	0.33374
397.18	4.13611
400.072	8.13965
402.965	5.44665
405.858	8.61804
408.75	0.791626
411.643	1.95862
414.536	1.45019
417.428	5.63672
420.321	1.67969
423.214	9.52466
426.107	7.43579
428.999	12.3254
431.892	9.59131
434.785	7.7876
437.677	9.07886
440.57	8.448
443.463	12.5817
446.356	2.61462
449.248	8.73572
452.141	9.82715
455.034	6.57776
457.926	2.44495
460.819	6.02136
463.712	4.37293
466.604	8.76721
469.497	6.17688
472.39	10.7683
475.283	4.77356
478.175	8.60364
481.068	3.90674
483.961	5.14123
486.853	2.29163
489.746	8.62012
492.639	7.12756
495.531	11.6727
498.424	13.5707
501.317	8.20862
504.21	0.164673
507.102	3.2356
509.995	2.14539
512.888	13.3959
515.78	3.39746
518.673	6.17212
521.566	5.48413
524.458	13.5228
527.351	10.8218
530.244	7.35046
533.137	2.29394
536.029	6.6842
538.922	8.17041
541.815	3.57886
544.707	11.5897
547.6	10.496
550.493	9.79053
553.386	14.1298
556.278	10.714
559.171	11.2078
562.064	14.5538
564.956	11.3854
567.849	10.4086
570.742	11.7248
573.635	13.288
576.527	14.5431
579.42	9.87268
582.313	9.12427
585.205	10.2339
588.098	6.53662
590.991	8.9956
593.883	6.65625
596.776	7.93274
599.669	9.73474
602.562	6.21082
605.454	2.77576
608.347	4.76379
611.24	9.99609
614.132	4.54858
617.025	5.83997
619.918	4.18237
622.81	1.3103
625.703	6.79016
628.596	1.2113
631.489	0.230835
634.381	2.48144
637.274	0.777466
640.167	10.048
643.059	5.29175
645.952	8.52283
648.845	6.5846
651.737	1.74023
654.63	3.74536
657.523	6.28125
660.416	10.2303
663.308	8.65173
666.201	6.23291
669.094	1.0675
671.986	5.90002
674.879	3.9917
677.772	3.89685
680.664	6.43445
683.557	7.83484
686.45	9.02539
689.343	19.8611
692.235	13.3553
695.128	2.10095
698.021	3.57056
700.913	8.86206
703.806	8.07605
706.699	9.59387
709.592	5.58997
712.484	8.04309
715.377	6.89624
718.27	5.61255
721.162	1.6499
724.055	3.59485
726.948	2.48657
729.841	2.33093
732.733	3.23425
735.626	6.31079
738.519	3.99744
741.411	0.543701
744.304	0.962158
747.197	0.390991
750.089	5.24011
752.982	2.42078
755.875	2.50647
758.768	5.53882
761.66	0.94519
764.553	4.02258
767.446	1.35156
770.338	6.57996
773.231	4.37354
776.124	0.18335
779.016	4.96863
781.909	6.31531
784.802	5.58398
787.694	11.3331
790.587	9.27148
793.48	7.34668
796.373	7.20691
799.265	5.28455
802.158	14.3289
805.051	4.37183
807.943	7.16284
810.836	3.16492
813.729	6.35583
816.621	5.56824
819.514	6.65198
822.407	9.85754
825.3	0.205811
828.192	3.51135
831.085	8.5752
833.978	0.985352
836.87	0.033691
839.763	7.31543
842.656	6.36231
845.549	0.520264
848.441	4.47034
851.334	4.79773
854.227	5.15161
857.119	6.46228
860.012	3.62793
862.905	1.37512
865.798	1.29199
868.69	14.081
871.583	12.5878
874.476	8.86035
877.368	8.01672
880.261	17.6617
883.154	10.563
886.046	4.30078
888.939	7.63721
891.832	8.62598
894.725	6.79163
897.617	7.91186
900.51	5.57825
903.403	10.698
906.295	11.2356
909.188	12.5775
912.081	3.4613
914.973	9.08142
917.866	6.49133
920.759	17.7189
923.652	18.9989
926.544	14.5972
929.437	15.2925
932.33	19.1091
935.222	13.4706
938.115	6.72754
941.008	4.60364
943.9	4.65149
946.793	10.2872
949.686	1.55249
952.579	5.26099
955.471	4.03516
958.364	2.86975
961.257	3.93762
964.149	7.34802
967.042	7.42847
969.935	10.3413
972.827	14.1303
975.72	12.4476
978.613	13.5107
981.506	12.8153
984.398	9.98254
987.291	7.30493
990.184	5.51709
993.077	4.32642
995.969	9.35718
998.862	7.93213
1001.75	7.59497
1004.65	0.911377
1007.54	6.59497
1010.43	2.89941
1013.33	4.63892
1016.22	13.054
1019.11	5.59521
1022	8.11743
1024.9	3.10669
1027.79	5.01685
1030.68	5.66846
1033.57	1.37183
1036.47	5.4231
1039.36	8.48462
1042.25	5.62915
1045.14	1.00537
1048.04	5.36401
1050.93	1.25659
1053.82	3.64526
1056.72	9.57959
1059.61	3.8081
1062.5	6.46094
1065.39	8.7771
1068.29	3.83838
1071.18	16.6714
1074.07	11.9121
1076.96	8.4126
1079.86	7.00024
1082.75	10.5872
1085.64	4.06396
1088.54	9.2749
1091.43	7.01904
1094.32	7.90356
1097.21	1.03784
1100.11	2.97192
1103	6.64307
1105.89	8.04028
1108.79	9.29736
1111.68	6.25879
1114.57	5.17871
1117.46	9.58618
1120.36	12.5212
1123.25	7.25854
1126.14	0.237793
1129.03	7.37964
1131.93	6.83911
1134.82	8.83813
1137.71	4.26831
1140.6	5.82861
1143.5	3.32031
1146.39	9.54273
1149.28	3.88965
1152.17	2.99097
1155.07	0.92627
1157.96	4.81543
1160.85	2.59522
1163.75	7.28613
1166.64	14.2222
1169.53	5.70825
1172.42	9.16504
1175.32	6.78174
1178.21	2.47681
1181.1	7.44775
1183.99	6.74854
1186.89	5.65039
1189.78	6.0874
1192.67	12.446
1195.57	8.78613
1198.46	9.10718
1201.35	10.9085
1204.24	16.4148
1207.14	6.51733
1210.03	6.95435
1212.92	10.3755
1215.82	12.0176
1218.71	9.38867
1221.6	5.73682
1224.49	6.0979
1227.38	9.09424
1230.28	2.14111
1233.17	1.20337
1236.06	5.9165
1238.96	5.77979
1241.85	5.80786
1244.74	4.86939
1247.63	8.01294
1250.53	3.58667
1253.42	1.43701
1256.31	1.30225
1259.2	1.15259
1262.1	11.7268
1264.99	9.8147
1267.88	7.68457
1270.78	8.51904
1273.67	9.73023
1276.56	6.44116
1279.45	6.52051
1282.35	1.77832
1285.24	7.40308
1288.13	6.62573
1291.03	9.22632
1293.92	6.05029
1296.81	8.22217
1299.7	3.51269
1302.6	0
