Measurement: Raman, 780 nm, unoriented, Raman Data Processed
Mineral: Djurleite
Rruff sample: R100172
Ideal chemistry: Cu_31_S_16_
Locality: Butte, Montana, USA
Source: Steve Young
Description: Unconsolidated black fragments
Measured chemistry: (Cu_30.68_Fe_0.01_)_Î£=30.69_S_16_ = Cu_1.92_S
Raman shift (cm-1)	intensity
161.959	0
164.851	0.440262
167.744	2.46875
170.637	1.37787
173.53	3.02675
176.422	3.127
179.315	4.02806
182.208	1.24478
185.1	1.73172
187.993	2.33089
190.886	0.90387
193.778	1.52179
196.671	3.15544
199.564	1.52357
202.457	0.749435
205.349	1.89078
208.242	4.81688
211.135	2.27087
214.027	4.25497
216.92	2.68204
219.813	3.20033
222.705	4.02861
225.598	3.22563
228.491	4.81316
231.383	3.68114
234.276	4.19244
237.169	7.11278
240.061	7.37521
242.954	6.89532
245.847	7.52466
248.74	5.82259
251.632	5.37727
254.525	6.43297
257.418	3.25642
260.31	3.56404
263.203	1.46518
266.096	1.01764
268.988	4.32463
271.881	2.44008
274.774	0.301682
277.667	2.96666
280.559	3.32738
283.452	3.9922
286.345	3.50008
289.237	1.51662
292.13	1.4897
295.023	0.440903
297.916	2.75734
300.808	3.64616
303.701	1.11467
306.594	2.23578
309.486	3.31352
312.379	0.246674
315.272	1.84357
318.164	2.33872
321.057	0.150681
323.95	3.30873
326.842	2.39142
329.735	1.82431
332.628	1.95071
335.521	5.18976
338.413	4.0003
341.306	4.18706
344.199	3.81091
347.091	1.43979
349.984	1.7061
352.877	2.29246
355.769	1.76265
358.662	0.135727
361.555	0.513428
364.447	3.68089
367.34	1.01529
370.233	2.27744
373.126	0.988953
376.018	1.24556
378.911	1.65962
381.804	0.246689
384.696	0.903839
387.589	0.70903
390.482	0.540421
393.375	1.24945
396.267	2.05231
399.16	0.941132
402.053	1.9847
404.945	0.050201
407.838	1.74573
410.731	2.08054
413.623	1.4581
416.516	1.85918
419.409	1.27449
422.301	3.40675
425.194	2.02061
428.087	2.39346
430.98	2.19591
433.872	1.7119
436.765	0.166397
439.658	2.99165
442.55	0.223236
445.443	1.98671
448.336	2.53897
451.228	0.949738
454.121	0.298386
457.014	1.38954
459.907	1.47171
462.799	1.15174
465.692	0.967361
468.585	2.91911
471.477	2.6698
474.37	0.98407
477.263	3.26393
480.156	3.40185
483.048	1.98071
485.941	0.692474
488.834	1.30574
491.726	1.1568
494.619	0.636749
497.512	0.691437
500.404	0.326294
503.297	3.58093
506.19	1.23439
509.082	2.48903
511.975	0.482697
514.868	0.583496
517.761	2.38852
520.653	1.46918
523.546	1.91652
526.439	1.83966
529.331	1.87027
532.224	2.22041
535.117	1.32086
538.01	0.522003
540.902	0.919739
543.795	3.44809
546.688	0.746048
549.58	2.97954
552.473	2.14062
555.366	1.57629
558.258	0.323868
561.151	1.87724
564.044	1.08693
566.936	2.8829
569.829	1.48453
572.722	1.56723
575.615	2.46664
578.507	2.0462
581.4	0.964584
584.293	2.3822
587.185	0.126007
590.078	0.410889
592.971	1.61021
595.863	1.59166
598.756	3.20818
601.649	1.71083
604.542	1.35527
607.434	1.02615
610.327	1.0764
613.22	1.45673
616.112	3.08997
619.005	1.95012
621.898	3.80063
624.79	3.34112
627.683	4.11064
630.576	3.10144
633.468	2.26259
636.361	2.75178
639.254	1.11855
642.146	2.20796
645.039	0.799789
647.932	2.36664
650.825	2.30985
653.717	1.52165
656.61	3.45047
659.503	2.32091
662.395	2.31015
665.288	2.44476
668.181	2.42929
671.073	0.01593
673.966	1.92961
676.859	1.56041
679.752	2.34522
682.644	0.089615
685.537	1.79099
688.43	2.11543
691.322	0.743011
694.215	1.43468
697.108	0.845886
700	1.39529
702.893	2.88904
705.786	1.42894
708.679	4.17629
711.571	1.00786
714.464	2.1805
717.357	1.18576
720.249	1.2448
723.142	1.10164
726.035	1.81732
728.928	3.07585
731.82	2.2599
734.713	0.822433
737.606	1.10681
740.498	2.45802
743.391	1.16063
746.284	1.41003
749.176	1.75024
752.069	1.6909
754.962	0.943176
757.855	2.40395
760.747	1.8073
763.64	0.430557
766.533	1.09326
769.425	2.41434
772.318	1.68274
775.211	1.60922
778.103	0.563309
780.996	3.15742
783.889	2.00128
786.782	1.04648
789.674	1.81181
792.567	1.06387
795.46	1.8533
798.352	1.99382
801.245	0.947693
804.138	0.04071
807.03	3.00113
809.923	0.814499
812.816	1.95689
815.708	4.89175
818.601	3.01657
821.494	1.52438
824.386	3.29004
827.279	2.9868
830.172	3.84969
833.065	2.82355
835.957	3.52678
838.85	2.93086
841.743	2.43547
844.635	3.26146
847.528	2.17102
850.421	3.7952
853.313	4.30142
856.206	3.34697
859.099	5.39613
861.992	2.20529
864.884	2.29117
867.777	3.9752
870.67	5.10001
873.562	0.968262
876.455	1.5173
879.348	3.1384
882.24	1.19466
885.133	6.1613
888.026	2.82817
890.919	1.13977
893.811	4.88527
896.704	0.860306
899.597	2.55046
902.489	1.37236
905.382	0.369278
908.275	2.56422
911.168	2.25176
914.06	0.150955
916.953	1.22823
919.846	2.62503
922.738	0.790649
925.631	1.42796
928.524	1.56679
931.416	3.19038
934.309	0.84903
937.202	1.92526
940.095	2.62433
942.987	1.36662
945.88	2.11999
948.773	3.27176
951.665	2.11841
954.558	0.169113
957.451	2.73837
960.343	2.58594
963.236	2.5992
966.129	2.03027
969.021	2.04181
971.914	0.717056
974.807	1.33104
977.699	1.4286
980.592	0.986008
983.485	0.832108
986.378	2.76735
989.27	1.01204
992.163	2.67992
995.056	1.62103
997.948	0.417404
1000.84	1.21111
1003.73	0.457397
1006.63	3.94937
1009.52	2.33299
1012.41	0.437622
1015.3	0.744873
1018.2	0.830551
1021.09	1.80624
1023.98	0.121902
1026.88	1.56255
1029.77	3.40912
1032.66	2.82046
1035.55	2.09192
1038.45	1.24731
1041.34	0.726883
1044.23	2.78479
1047.12	2.65132
1050.02	3.41791
1052.91	2.61801
1055.8	1.7617
1058.69	1.99124
1061.59	2.42751
1064.48	2.70404
1067.37	3.41242
1070.27	1.39725
1073.16	5.08955
1076.05	1.77057
1078.94	2.43988
1081.84	0.898621
1084.73	2.04067
1087.62	1.7101
1090.52	3.23395
1093.41	2.50237
1096.3	1.34401
1099.19	2.07773
1102.09	2.72069
1104.98	1.03606
1107.87	3.22044
1110.76	4.07451
1113.66	2.84227
1116.55	2.9138
1119.44	2.34087
1122.33	0.55809
1125.23	0.028381
1128.12	1.68477
1131.01	3.46394
1133.9	1.19971
1136.8	3.49516
1139.69	3.09312
1142.58	0.363525
1145.48	3.01994
1148.37	0.703568
1151.26	2.29243
1154.15	1.1618
1157.05	5.03189
1159.94	1.65106
1162.83	4.70651
1165.72	3.34386
1168.62	2.90759
1171.51	1.38532
1174.4	2.5081
1177.3	2.69298
1180.19	2.332
1183.08	3.67183
1185.97	2.60756
1188.87	2.79842
1191.76	2.00975
1194.65	4.33392
1197.55	2.62048
1200.44	2.47716
1203.33	1.63156
1206.22	1.9455
1209.12	1.4809
1212.01	0.567184
1214.9	0.744354
1217.79	1.24731
1220.69	0.796066
1223.58	1.9825
1226.47	1.11658
1229.36	1.59906
1232.26	0.948715
1235.15	4.67819
1238.04	3.91318
1240.93	0.10733
1243.83	1.59621
1246.72	3.22078
1249.61	2.511
1252.51	1.22028
1255.4	4.3605
1258.29	1.56575
1261.18	1.95904
1264.08	1.608
1266.97	0.87558
1269.86	1.22611
1272.76	2.32488
1275.65	0.245239
1278.54	0.478958
1281.43	1.40027
1284.33	0.311981
