Measurement: Raman, 532 nm, unoriented, Raman Data Processed
Mineral: Djurleite
Rruff sample: R100172
Ideal chemistry: Cu_31_S_16_
Locality: Butte, Montana, USA
Source: Steve Young
Description: Unconsolidated black fragments
Measured chemistry: (Cu_30.68_Fe_0.01_)_Î£=30.69_S_16_ = Cu_1.92_S
Raman shift (cm-1)	intensity
166.728	0
169.62	3.25244
172.513	5.10899
175.406	2.23311
178.298	1.69699
181.191	2.63315
184.084	0.811668
186.976	1.98959
189.869	0.664886
192.762	0.447407
195.655	1.51422
198.547	2.43938
201.44	0.786011
204.333	1.20833
207.225	1.64907
210.118	0.543896
213.011	2.35663
215.904	0.287384
218.796	0.129654
221.689	0.92794
224.582	1.16748
227.474	0.633373
230.367	1.33882
233.26	0.617928
236.152	0.843903
239.045	0.504128
241.938	1.49771
244.831	1.41465
247.723	1.75471
250.616	1.36969
253.509	1.96755
256.401	1.82824
259.294	1.66861
262.187	1.18022
265.079	2.5135
267.972	3.02119
270.865	1.47585
273.758	0.764336
276.65	2.00324
279.543	1.68417
282.436	2.6096
285.328	1.56831
288.221	2.61858
291.114	3.17294
294.007	2.79966
296.899	2.40658
299.792	3.94656
302.685	2.54839
305.577	3.82502
308.47	4.09992
311.363	2.42071
314.255	3.89622
317.148	2.75945
320.041	4.45856
322.933	2.01272
325.826	2.28043
328.719	2.46347
331.612	1.60824
334.504	1.15627
337.397	0.820076
340.29	1.45392
343.183	1.2123
346.075	0.545258
348.968	0.729904
351.861	1.77282
354.753	0.883865
357.646	0.190468
360.539	0.130424
363.431	1.14091
366.324	1.38926
369.217	0.188004
372.11	1.54066
375.002	0.932732
377.895	0.57634
380.788	0.848656
383.68	0.745842
386.573	0.765297
389.466	2.23731
392.358	1.43706
395.251	1.15031
398.144	1.19024
401.036	0.934875
403.929	2.73475
406.822	1.82594
409.715	1.17863
412.607	1.52055
415.5	0.099083
418.393	1.47786
421.285	0.426262
424.178	0.350433
427.071	1.81987
429.964	0.501984
432.856	1.08533
435.749	1.11018
438.642	1.25757
441.534	1.27554
444.427	1.94269
447.32	0.859123
450.212	3.58392
453.105	2.03078
455.998	1.59761
458.891	1.56321
461.783	2.14858
464.676	1.60123
467.569	0.241867
470.461	3.2446
473.354	1.15733
476.247	2.05608
479.139	1.92457
482.032	2.32231
484.925	2.44285
487.818	1.59838
490.71	1.29469
493.603	1.99415
496.496	0.504433
499.388	2.13179
502.281	0.708084
505.174	2.07497
508.067	0.022728
510.959	2.37715
513.852	0.382042
516.745	0.326279
519.637	1.2028
522.53	0.344215
525.423	2.45637
528.316	1.43472
531.208	2.16974
534.101	1.00439
536.994	1.97351
539.886	2.57385
542.779	1.13725
545.672	1.85877
548.564	0.723404
551.457	2.26677
554.35	2.14841
557.242	1.47853
560.135	1.35897
563.028	0.29612
565.921	1.74802
568.813	2.36575
571.706	1.70121
574.599	1.04234
577.491	2.21656
580.384	2.45521
583.277	0.026466
586.17	3.54543
589.062	1.13924
591.955	0.123558
594.848	2.34761
597.74	1.92681
600.633	2.49779
603.526	1.4447
606.418	1.22836
609.311	2.90198
612.204	1.57932
615.097	0.084587
617.989	1.54104
620.882	1.23654
623.775	1.67467
626.667	1.45548
629.56	0.525948
632.453	0.152832
635.346	1.73162
638.238	2.47803
641.131	1.7254
644.024	0.251968
646.916	1.32212
649.809	0.084961
652.702	1.03703
655.594	2.60605
658.487	1.27164
661.38	0.65506
664.273	0.992897
667.165	0.721046
670.058	0.954178
672.951	0.076614
675.843	1.70343
678.736	1.21121
681.629	1.59004
684.521	1.99118
687.414	1.72511
690.307	1.50707
693.199	1.14011
696.092	1.01709
698.985	0.660851
701.878	0.305466
704.77	0.959152
707.663	2.93605
710.556	1.34895
713.448	1.67081
716.341	0.949135
719.234	0.485962
722.127	0.142349
725.019	0.199097
727.912	0.131973
730.805	1.36464
733.697	1.0551
736.59	1.73716
739.483	2.09067
742.375	1.89905
745.268	1.65703
748.161	0.733246
751.054	1.48385
753.946	1.53814
756.839	1.89558
759.732	1.12586
762.625	1.35458
765.517	1.23303
768.41	1.00522
771.303	0.756973
774.195	2.13757
777.088	-0.0954898
779.981	1.09965
782.873	0.915009
785.766	1.69786
788.659	1.29302
791.552	0.490288
794.444	1.73858
797.337	0.283051
800.23	1.2395
803.122	1.03971
806.015	0.89946
808.908	1.21861
811.8	1.58956
814.693	2.1234
817.586	0.380981
820.479	1.33357
823.371	0.619354
826.264	1.9346
829.157	1.62518
832.049	2.06322
834.942	1.30813
837.835	1.13819
840.727	0.532677
843.62	0.286583
846.513	1.19094
849.405	1.75573
852.298	1.81187
855.191	0.240204
858.084	1.6677
860.976	1.62142
863.869	1.37485
866.762	2.56358
869.654	0.402222
872.547	2.2159
875.44	3.01189
878.333	1.54479
881.225	1.72286
884.118	1.81731
887.011	1.96997
889.903	0.641182
892.796	0.432831
895.689	0.440308
898.582	0.805031
901.474	1.66974
904.367	1.02222
907.26	1.9836
910.152	0.180283
913.045	0.330093
915.938	0.821693
918.83	1.22462
921.723	0.341431
924.616	1.56426
927.509	0.972466
930.401	1.7844
933.294	1.27061
936.187	1.84909
939.079	0.383644
941.972	0.850029
944.865	1.08165
947.757	1.45964
950.65	0.067764
953.543	0.446487
956.436	1.49124
959.328	0.597977
962.221	0.431282
965.114	0.046898
968.006	0.847176
970.899	1.20749
973.792	1.81117
976.684	2.18668
979.577	2.40311
982.47	3.54894
985.362	0.705772
988.255	0.982758
991.148	1.02712
994.041	0.814651
996.933	1.78331
999.826	2.24482
1002.72	2.52136
1005.61	0.828529
1008.5	0.090248
1011.4	2.44955
1014.29	1.16366
1017.18	1.67443
1020.08	2.74214
1022.97	0.113686
1025.86	1.77097
1028.75	1.54807
1031.65	1.59454
1034.54	0.345673
1037.43	2.85655
1040.32	2.2923
1043.22	1.21652
1046.11	0.037132
1049	1.39602
1051.89	1.0005
1054.79	1.93868
1057.68	1.59994
1060.57	1.89844
1063.47	0.795761
1066.36	1.30905
1069.25	1.92397
1072.14	2.12592
1075.04	2.23264
1077.93	1.13909
1080.82	0.894897
1083.71	0.900948
1086.61	0.516121
1089.5	2.05627
1092.39	0.780388
1095.29	2.83283
1098.18	0.857002
1101.07	2.74007
1103.96	1.60105
1106.86	1.46452
1109.75	1.6846
1112.64	2.6669
1115.53	1.40268
1118.43	0.650551
1121.32	2.35932
1124.21	1.92356
1127.11	0.785385
1130	1.29074
1132.89	1.60365
1135.78	0.885933
1138.68	0.238091
1141.57	1.60857
1144.46	1.45992
1147.35	1.01657
1150.25	1.0815
1153.14	0.810341
1156.03	0.868912
1158.92	0.011429
1161.82	0.131241
1164.71	0.453514
1167.6	0.053902
1170.5	2.86855
1173.39	1.7907
1176.28	2.01372
1179.17	1.67347
1182.07	1.32498
1184.96	0.901764
1187.85	0.134384
1190.74	1.15693
1193.64	2.61028
1196.53	1.44241
1199.42	0.583641
1202.32	1.37113
1205.21	1.5165
1208.1	0.525291
1210.99	1.38406
1213.89	0.529121
1216.78	0.649796
1219.67	1.91672
1222.56	1.0966
1225.46	0.963173
1228.35	1.34312
1231.24	1.63377
1234.13	1.39243
1237.03	1.61304
1239.92	1.26886
1242.81	0.012634
1245.71	1.53235
1248.6	0.132324
1251.49	1.42073
1254.38	1.6953
1257.28	1.15429
1260.17	1.26617
1263.06	2.19508
1265.95	2.71201
1268.85	1.22256
1271.74	1.29462
1274.63	2.29385
1277.53	2.19515
1280.42	2.64143
1283.31	0.834221
1286.2	2.58922
1289.1	1.29591
1291.99	0.679832
1294.88	1.73412
1297.78	0.871727
1300.67	0.18663
