Measurement: Raman, 780 nm, unoriented, Raman Data Processed
Mineral: Djurleite
Rruff sample: R100173
Ideal chemistry: Cu_31_S_16_
Locality: King Vein, Morenci, Arizona, USA
Source: Steve Young
Description: Gray metallic fragments
Measured chemistry: Cu_30.65_S_16_ = Cu_1.92_S
Raman shift (cm-1)	intensity
141.228	0
144.12	1.40318
147.013	0.64473
149.906	3.0007
152.798	0.797577
155.691	2.09302
158.584	0.519226
161.477	1.37192
164.369	0.002533
167.262	3.33403
170.155	2.21709
173.047	2.67024
175.94	2.17276
178.833	1.565
181.726	2.20979
184.618	2.12755
187.511	0.784378
190.404	2.9673
193.296	1.97655
196.189	0.377563
199.082	2.79256
201.974	5.01271
204.867	0.169952
207.76	4.27107
210.652	4.66148
213.545	4.61729
216.438	4.03323
219.331	3.52353
222.223	3.58655
225.116	4.17114
228.009	4.11929
230.901	7.47548
233.794	8.44809
236.687	5.70802
239.579	6.10666
242.472	6.33488
245.365	6.21396
248.257	8.09802
251.15	6.37825
254.043	2.71143
256.936	4.93605
259.828	3.74646
262.721	3.60432
265.614	1.82875
268.506	2.27476
271.399	3.14235
274.292	4.00215
277.185	2.18404
280.077	3.00748
282.97	4.15402
285.863	2.78653
288.755	2.85199
291.648	1.22849
294.541	4.89706
297.433	3.65425
300.326	2.1891
303.219	2.16907
306.111	3.89706
309.004	3.61964
311.897	3.6839
314.79	5.84694
317.682	3.9023
320.575	4.2683
323.468	5.32156
326.36	3.40266
329.253	5.15431
332.146	2.21605
335.038	2.81128
337.931	5.08484
340.824	5.81377
343.717	3.92128
346.609	3.37709
349.502	1.19879
352.395	3.18103
355.287	2.92914
358.18	3.18892
361.073	0.126129
363.965	2.99214
366.858	3.24013
369.751	2.38155
372.644	1.43454
375.536	2.13141
378.429	3.05716
381.322	0.836548
384.214	1.03374
387.107	0.885651
390	1.54424
392.892	2.01569
395.785	1.07265
398.678	4.54591
401.57	1.97136
404.463	3.5527
407.356	1.82362
410.249	2.01746
413.141	4.02733
416.034	2.39952
418.927	2.72661
421.819	0.105789
424.712	1.69983
427.605	2.88258
430.498	4.86787
433.39	4.13782
436.283	2.43573
439.176	0.838043
442.068	1.3651
444.961	1.91812
447.854	3.17152
450.746	6.01541
453.639	2.541
456.532	3.04627
459.425	4.22038
462.317	6.77525
465.21	2.78073
468.103	3.03613
470.995	3.79481
473.888	2.30846
476.781	2.78601
479.673	2.89027
482.566	6.25047
485.459	3.55421
488.351	5.34108
491.244	3.98302
494.137	3.32724
497.029	2.34845
499.922	1.32564
502.815	1.24515
505.708	3.4332
508.6	2.53281
511.493	3.12431
514.386	2.58452
517.278	1.09688
520.171	2.45001
523.064	2.4128
525.957	1.6676
528.849	3.83537
531.742	0.167419
534.635	0.317444
537.527	2.46332
540.42	0.345123
543.313	2.77663
546.205	2.05643
549.098	2.89206
551.991	2.84468
554.884	4.86865
557.776	2.97984
560.669	1.24764
563.562	3.29648
566.454	2.95328
569.347	2.33008
572.24	0.469147
575.132	3.26297
578.025	2.28876
580.918	2.5789
583.811	4.39694
586.703	1.02191
589.596	0.799072
592.489	1.13109
595.381	1.79211
598.274	3.93457
601.167	1.66167
604.059	3.64261
606.952	0.509552
609.845	2.67821
612.737	0.994049
615.63	2.7023
618.523	1.77045
621.416	4.77504
624.308	1.29242
627.201	2.44511
630.094	0.288239
632.986	1.59729
635.879	4.95725
638.772	2.12617
641.664	5.11713
644.557	2.95261
647.45	2.93474
650.342	2.29146
653.235	3.49674
656.128	4.39397
659.021	1.22072
661.913	1.04627
664.806	3.3714
667.699	2.32658
670.591	1.74272
673.484	3.02531
676.377	2.1322
679.269	0.135742
682.162	1.88037
685.055	1.38739
687.948	3.45543
690.84	1.23222
693.733	2.03461
696.626	1.74063
699.518	2.38863
702.411	0.520477
705.304	0.394653
708.197	1.21204
711.089	3.84219
713.982	3.14738
716.875	1.20419
719.767	1.30631
722.66	3.34943
725.553	1.81557
728.445	0.951004
731.338	0.505707
734.231	0.642532
737.124	1.02023
740.016	1.67197
742.909	2.32121
745.802	3.14586
748.694	2.28847
751.587	1.68857
754.48	2.76527
757.372	0.403931
760.265	1.63754
763.158	0.215775
766.051	1.29825
768.943	3.4176
771.836	0.280167
774.729	0.408066
777.621	4.3456
780.514	4.00964
783.407	2.87016
786.299	3.09354
789.192	3.09247
792.085	1.67622
794.977	2.65007
797.87	2.96252
800.763	4.5804
803.655	3.29959
806.548	3.98125
809.441	2.60309
812.334	3.89479
815.226	2.83308
818.119	3.13828
821.012	3.89153
823.904	4.33456
826.797	4.50946
829.69	4.15266
832.582	7.20711
835.475	7.05643
838.368	0.880524
841.261	6.45871
844.153	5.64008
847.046	4.34534
849.939	4.8018
852.831	6.68532
855.724	6.68961
858.617	4.84622
861.51	7.63184
864.402	3.90201
867.295	3.48152
870.188	5.2005
873.08	5.59244
875.973	5.08978
878.866	5.21277
881.758	3.68021
884.651	2.45151
887.544	2.57107
890.437	3.09824
893.329	3.41058
896.222	4.59433
899.115	2.74437
902.007	0.49556
904.9	0.584152
907.793	0.520538
910.685	0.440308
913.578	2.85178
916.471	1.6666
919.364	1.56288
922.256	2.77713
925.149	5.12662
928.042	3.24287
930.934	0.085907
933.827	4.30208
936.72	0.47406
939.612	2.51035
942.505	2.89793
945.398	1.24762
948.29	4.92325
951.183	4.07726
954.076	2.94927
956.968	2.7894
959.861	2.65109
962.754	2.00076
965.647	3.04105
968.539	3.80977
971.432	3.71053
974.325	1.50334
977.217	0.181641
980.11	0.440781
983.003	2.14284
985.895	0.510742
988.788	3.10187
991.681	3.94515
994.574	1.63841
997.466	5.52949
1000.36	4.37219
1003.25	1.83028
1006.14	2.02728
1009.04	2.61301
1011.93	3.58693
1014.82	4.6928
1017.72	2.33643
1020.61	2.57765
1023.5	1.88583
1026.39	4.07593
1029.29	3.89528
1032.18	2.59908
1035.07	3.83881
1037.96	3.22737
1040.86	5.20233
1043.75	3.86992
1046.64	2.2421
1049.54	4.3378
1052.43	4.77188
1055.32	0.735886
1058.21	3.63741
1061.11	2.79393
1064	3.58449
1066.89	5.62355
1069.78	3.69577
1072.68	2.38231
1075.57	3.30675
1078.46	1.95193
1081.35	0.086319
1084.25	4.80766
1087.14	1.43695
1090.03	0.574738
1092.92	3.12196
1095.82	0.318985
1098.71	0.248245
1101.6	1.21014
1104.5	2.14905
1107.39	2.00763
1110.28	1.68845
1113.17	0.548981
1116.07	4.20802
1118.96	1.52684
1121.85	4.49026
1124.74	0.849121
1127.64	0.123138
1130.53	2.19983
1133.42	2.16305
1136.32	1.19988
1139.21	0.476089
1142.1	3.04291
1144.99	4.1606
1147.89	2.97772
1150.78	4.63667
1153.67	3.29596
1156.57	1.58684
1159.46	1.7152
1162.35	4.14816
1165.24	0.817871
1168.13	3.23351
1171.03	2.62505
1173.92	3.23633
1176.81	0.689392
1179.71	3.74435
1182.6	1.77121
1185.49	3.32185
1188.38	3.18991
1191.28	5.09404
1194.17	2.81224
1197.06	2.02461
1199.95	2.29683
1202.85	2.41792
1205.74	1.91072
1208.63	2.92006
1211.53	2.80261
1214.42	1.48216
1217.31	3.83707
1220.2	2.93884
1223.1	2.85832
1225.99	1.19556
1228.88	0.384201
1231.78	0.361588
1234.67	3.33015
1237.56	4.3195
1240.45	1.02161
1243.35	1.66254
1246.24	4.99121
1249.13	1.97758
1252.02	0.563721
1254.92	2.24036
1257.81	3.1382
1260.7	0.612061
1263.59	1.91945
1266.49	0.622482
1269.38	1.68527
1272.27	3.64815
1275.16	0.494431
1278.06	1.82194
1280.95	0.351776
1283.84	0.713989
