Measurement: Raman, 780 nm, unoriented, Raman Data Processed
Mineral: Dolerophanite
Rruff sample: R060139
Ideal chemistry: Cu^2+^_2_OS^6+^O_4_
Locality: Vesuvius, Italy
Source: University of Arizona Mineral Museum
Description: Rootbeer brown fragment
Raman shift (cm-1)	intensity
149.397	0
152.29	0.004078
155.183	0.562326
158.075	0.707601
160.968	0.939976
163.861	0.848895
166.753	0.977595
169.646	0.640969
172.539	0.570563
175.431	0.326063
178.324	0.282732
181.217	0.459519
184.11	0.569136
187.002	0.053573
189.895	0.435509
192.788	0.262819
195.68	0.027378
198.573	0.491786
201.466	0.656751
204.358	0.059389
207.251	0.208691
210.144	0.25673
213.037	0.262692
215.929	0.680147
218.822	1.04383
221.715	0.47146
224.607	0.719445
227.5	0.773278
230.393	0.533848
233.286	1.35092
236.178	1.18655
239.071	0.776027
241.964	0.31749
244.856	0.529616
247.749	0.060246
250.642	0.275865
253.534	0.392669
256.427	0.238646
259.32	1.3774
262.212	0.140174
265.105	0.738688
267.998	0.541788
270.891	0.622477
273.783	0.045679
276.676	0.090173
279.569	0.536903
282.461	0.339131
285.354	0.137131
288.247	0.511587
291.139	0.009182
294.032	0.092559
296.925	0.406711
299.817	0.764276
302.71	1.0133
305.603	0.340272
308.496	0.638469
311.388	0.431357
314.281	0.036265
317.174	0.738429
320.066	0.48226
322.959	0.004398
325.852	0.591652
328.745	0.620211
331.637	0.835849
334.53	0.267646
337.423	0.494752
340.315	0.013726
343.208	1.09323
346.101	0.059317
348.993	0.200226
351.886	0.685953
354.779	0.937628
357.671	0.288517
360.564	0.381038
363.457	0.129221
366.35	0.727195
369.242	0.188289
372.135	0.533715
375.028	0.006388
377.92	0.045665
380.813	0.306157
383.706	0.363692
386.599	0.346297
389.491	0.163873
392.384	0.258488
395.277	0.159906
398.169	0.000556
401.062	0.488708
403.955	0.062182
406.847	0.001735
409.74	0.001704
412.633	0.068168
415.526	0.713367
418.418	0.744508
421.311	0.580218
424.204	0.617781
427.096	0.437922
429.989	0.007674
432.882	0.554975
435.774	0.201778
438.667	0.515831
441.56	0.32538
444.452	0.859452
447.345	0.179969
450.238	0.748666
453.13	0.440507
456.023	0.886302
458.916	0.527348
461.809	0.441195
464.701	0.923048
467.594	0.897368
470.487	0.106834
473.379	0.164961
476.272	0.323983
479.165	0.265421
482.058	1.02545
484.95	0.490393
487.843	0.245049
490.736	0.162089
493.628	0.356203
496.521	0.558723
499.414	0.698152
502.306	0.497773
505.199	0.000553
508.092	0.431763
510.985	0.383927
513.877	0.25054
516.77	0.418219
519.663	0.549303
522.555	0.002662
525.448	0.096244
528.341	0.036532
531.233	1.12577
534.126	0.422723
537.019	0.515746
539.912	0.221247
542.804	0.056372
545.697	0.141376
548.59	0.124206
551.482	0.584174
554.375	0.582348
557.268	0.789511
560.16	0.038648
563.053	0.299593
565.946	0.219134
568.838	0.40446
571.731	0.404321
574.624	1.03379
577.516	0.72349
580.409	0.76608
583.302	0.256834
586.195	0.755436
589.087	0.320687
591.98	0.631597
594.873	0.315093
597.765	0.808601
600.658	0.423976
603.551	0.588405
606.443	0.577647
609.336	0.165092
612.229	0.304132
615.122	1.02303
618.014	0.856269
620.907	0.161885
623.8	0.209619
626.692	0.193854
629.585	0.078859
632.478	0.735123
635.37	0.305125
638.263	0.989961
641.156	0.106848
644.049	0.804586
646.941	0.437281
649.834	0.274768
652.727	0.266707
655.619	0.603761
658.512	0.1216
661.405	0.046119
664.298	0.00425
667.19	0.173279
670.083	0.475818
672.976	0.558027
675.868	0.358715
678.761	0.082485
681.654	0.366552
684.546	0.036822
687.439	0.038694
690.332	0.347415
693.225	0.201907
696.117	0.403501
699.01	0.249533
701.903	0.933083
704.795	0.384318
707.688	0.589818
710.581	0.697581
713.473	0.422503
716.366	0.328459
719.259	0.393767
722.151	0.011732
725.044	0.396037
727.937	0.069747
730.83	0.551183
733.722	0.087687
736.615	0.595763
739.508	0.547811
742.4	0.358432
745.293	0.000484
748.186	0.659165
751.078	0.394754
753.971	0.067269
756.864	0.254593
759.756	0.264704
762.649	0.72586
765.542	0.318611
768.435	0.585998
771.327	0.102044
774.22	0.372175
777.113	0.050085
780.005	0.216194
782.898	0.881617
785.791	0.827133
788.683	0.042497
791.576	0.93896
794.469	0.008277
797.362	0.648784
800.254	0.633189
803.147	0.193749
806.04	1.02259
808.932	0.600227
811.825	0.930682
814.718	0.428493
817.611	0.572174
820.503	0.130601
823.396	0.304654
826.289	0.001748
829.181	0.596036
832.074	0.773108
834.967	0.002858
837.859	1.26079
840.752	0.064365
843.645	1.02239
846.538	0.856172
849.43	0.42595
852.323	0.433528
855.216	0.511341
858.108	1.01415
861.001	0.677603
863.894	0.30626
866.786	1.26506
869.679	0.060488
872.572	0.300224
875.464	0.135015
878.357	0.229418
881.25	1.36297
884.143	0.242501
887.035	0.700525
889.928	0.243627
892.821	0.543892
895.713	0.67329
898.606	0.37446
901.499	0.624152
904.391	0.842871
907.284	0.024182
910.177	0.226261
913.069	0.120919
915.962	0.397937
918.855	0.007559
921.748	0.23156
924.64	1.03217
927.533	1.09102
930.426	0.273693
933.318	0.37441
936.211	0.029237
939.104	0.467399
941.996	0.003016
944.889	0.546983
947.782	0.531155
950.675	0.099612
953.567	0.482286
956.46	0.581195
959.353	0.122559
962.245	1.06947
965.138	0.276886
968.031	0.30432
970.923	0.029265
973.816	0.768928
976.709	0.464076
979.602	0.542674
982.494	0.576944
985.387	1.51704
988.28	0.629048
991.172	1.45552
994.065	1.29444
996.958	2.01642
999.851	1.2207
1002.74	1.33269
1005.64	1.01391
1008.53	0.446492
1011.42	0.838553
1014.31	0.693572
1017.21	0.778406
1020.1	0.755151
1022.99	0.499331
1025.88	0.875513
1028.78	0.423801
1031.67	0.816331
1034.56	0.110067
1037.46	0.021607
1040.35	1.12196
1043.24	0.543498
1046.13	0.221026
1049.03	0.123861
1051.92	0.102344
1054.81	0.003394
1057.7	0.632551
1060.6	0.866005
1063.49	0.024795
1066.38	0.307546
1069.28	1.13718
1072.17	0.474983
1075.06	0.700967
1077.95	0.357914
1080.85	0.953302
1083.74	0.10657
1086.63	0.936834
1089.52	0.583709
1092.42	0.014379
1095.31	0.410926
1098.2	1.35875
1101.1	1.07229
1103.99	0.327083
1106.88	0.247221
1109.77	0.12885
1112.67	0.217518
1115.56	0.646522
1118.45	0.02436
1121.34	0.773644
1124.24	0.654729
1127.13	0.8686
1130.02	0.694064
1132.91	0.363809
1135.81	0.139619
1138.7	0.452492
1141.59	0.715719
1144.48	0.061201
1147.38	0.4537
1150.27	0.303456
1153.16	1.11456
1156.06	0.527796
1158.95	0.232284
1161.84	0.535609
1164.73	0.155457
1167.63	0.584876
1170.52	1.09057
1173.41	1.62669
1176.31	1.51962
1179.2	0.575729
1182.09	0.197475
1184.98	0.436837
1187.88	0.196923
1190.77	0.975395
1193.66	0.677753
1196.55	0.131998
1199.45	0.135031
1202.34	0.958683
1205.23	0.396473
1208.12	0.782385
1211.02	0.961239
1213.91	0.65359
1216.8	0.830943
1219.7	0.475911
1222.59	0.442119
1225.48	0.595564
1228.37	0.705186
1231.27	0.018428
1234.16	0.101613
1237.05	0.413378
1239.94	1.53531
1242.84	1.00897
1245.73	0.301639
1248.62	0.614396
1251.52	0.390035
1254.41	0.504806
1257.3	1.16445
1260.19	0.312731
1263.09	0.753606
1265.98	0.056774
1268.87	0.57592
1271.76	0.487128
1274.66	1.51206
1277.55	0.841843
1280.44	0.707879
1283.34	0.002881
1286.23	0
