Measurement: Raman, 532 nm, unoriented, Raman Data Processed
Mineral: Domeykite
Rruff sample: R070435
Ideal chemistry: Cu_3_As
Locality: Algodones mines, El Algod√≥n, Huasco Province, Atacama Region,Chile
Source: Michael Scott
Description: Grey metallic massive associated with scorodite
Raman shift (cm-1)	intensity
164.386	0
167.279	21.2391
170.172	15.7304
173.064	20.7335
175.957	1.17473
178.85	7.4986
181.743	13.0571
184.635	10.0949
187.528	27.2239
190.421	12.4583
193.313	17.6328
196.206	51.6591
199.099	40.1099
201.991	27.1586
204.884	10.934
207.777	9.30559
210.669	10.9305
213.562	20.8163
216.455	2.45302
219.348	9.09537
222.24	5.84235
225.133	19.8564
228.026	4.35574
230.918	3.16084
233.811	3.97774
236.704	3.468
239.596	5.65962
242.489	2.71874
245.382	8.88777
248.275	5.05554
251.167	19.2252
254.06	22.1062
256.953	11.1958
259.846	18.4679
262.738	16.319
265.631	47.648
268.524	33.6609
271.416	34.5449
274.309	34.3318
277.202	54.145
280.094	40.2797
282.987	53.7439
285.88	41.1056
288.772	47.4188
291.665	53.5239
294.558	58.7848
297.451	50.7572
300.343	71.0631
303.236	73.5381
306.129	74.4367
309.021	82.6482
311.914	68.9673
314.807	78.6658
317.7	93.1664
320.592	79.117
323.485	89.9095
326.378	95.787
329.27	110.61
332.163	105.485
335.056	102.609
337.948	99.7798
340.841	94.7315
343.734	86.2103
346.627	81.8344
349.519	45.5767
352.412	41.8992
355.305	45.3613
358.197	43.207
361.09	45.1044
363.983	43.3215
366.875	26.086
369.768	36.4389
372.661	8.72968
375.553	12.2912
378.446	34.485
381.339	3.62759
384.232	11.8213
387.124	9.78752
390.017	21.317
392.91	20.8443
395.802	21.4967
398.695	39.587
401.588	29.8496
404.481	15.2602
407.373	28.4171
410.266	17.5086
413.159	29.1227
416.051	13.1459
418.944	11.6011
421.837	20.2173
424.729	20.6246
427.622	9.79863
430.515	0.477859
433.408	38.1807
436.3	5.554
439.193	18.9236
442.086	7.21464
444.978	11.6753
447.871	5.23715
450.764	9.25534
453.656	0.165146
456.549	6.657
459.442	12.9321
462.334	30.8258
465.227	30.1766
468.12	20.3557
471.013	15.6027
473.905	18.6248
476.798	1.93092
479.691	12.6457
482.584	33.1863
485.476	9.44728
488.369	11.2696
491.262	6.76013
494.154	17.6224
497.047	27.8391
499.94	20.319
502.832	21.4273
505.725	6.78722
508.618	34.5612
511.51	8.57819
514.403	20.2331
517.296	4.94693
520.189	1.93098
523.081	18.5036
525.974	17.2388
528.867	14.6837
531.759	17.006
534.652	2.7258
537.545	19.9615
540.438	36.2328
543.33	24.436
546.223	23.9797
549.116	27.9374
552.008	24.2632
554.901	10.9504
557.794	21.4393
560.686	36.1746
563.579	11.7435
566.472	18.7515
569.365	19.9924
572.257	11.3468
575.15	2.37807
578.043	15.74
580.935	31.5312
583.828	19.3333
586.721	6.51556
589.613	24.472
592.506	2.89883
595.399	15.8704
598.292	1.91724
601.184	0.69725
604.077	18.2403
606.97	3.91873
609.862	17.5949
612.755	17.5924
615.648	1.25974
618.54	24.5068
621.433	28.4789
624.326	6.99322
627.218	16.4305
630.111	19.2071
633.004	20.4233
635.897	42.9286
638.789	33.7931
641.682	18.6415
644.575	25.2881
647.467	22.4474
650.36	18.807
653.253	39.9314
656.145	13.0515
659.038	15.6296
661.931	17.1766
664.824	19.9311
667.716	37.2951
670.609	16.704
673.502	4.64116
676.394	39.7836
679.287	5.48665
682.18	11.3782
685.073	13.705
687.965	18.4311
690.858	9.10464
693.751	22.5458
696.643	16.4188
699.536	30.1236
702.429	23.3528
705.322	24.7815
708.214	12.3831
711.107	16.3121
714	7.26816
716.892	26.7886
719.785	19.3441
722.678	7.46339
725.57	11.3377
728.463	1.96013
731.356	5.36848
734.249	11.1382
737.141	21.742
740.034	24.2191
742.927	14.5548
745.819	0.773239
748.712	15.126
751.605	11.063
754.497	12.222
757.39	21.4154
760.283	9.98576
763.176	24.9395
766.068	9.56064
768.961	5.58858
771.854	22.6932
774.746	4.7531
777.639	12.3652
780.532	12.0156
783.424	27.4505
786.317	12.256
789.21	26.8272
792.102	22.5092
794.995	33.7383
797.888	12.3158
800.781	3.33533
803.673	23.5505
806.566	34.9683
809.459	23.0318
812.351	3.13354
815.244	13.105
818.137	19.1457
821.029	11.2728
823.922	5.93195
826.815	28.3165
829.708	4.33246
832.6	15.5113
835.493	5.13962
838.386	24.9277
841.278	8.50954
844.171	9.54753
847.064	13.808
849.957	28.2295
852.849	35.1495
855.742	22.2542
858.635	22.7975
861.527	6.49522
864.42	15.0928
867.313	21.0433
870.205	12.9285
873.098	26.3469
875.991	23.6275
878.884	9.61678
881.776	21.7805
884.669	18.8672
887.562	15.5115
890.454	46.6056
893.347	7.53203
896.24	2.35185
899.132	23.0238
902.025	18.6824
904.918	18.0993
907.811	3.86433
910.703	20.6512
913.596	37.0824
916.489	27.5709
919.381	21.653
922.274	8.55589
925.167	17.386
928.059	23.1375
930.952	5.80048
933.845	10.8392
936.737	4.02477
939.63	27.0761
942.523	22.0149
945.416	14.3286
948.308	28.7909
951.201	12.2747
954.094	35.1167
956.986	26.672
959.879	20.1983
962.772	11.2184
965.665	5.39807
968.557	20.9307
971.45	8.60594
974.343	5.38765
977.235	32.3094
980.128	18.6699
983.021	30.2799
985.913	32.7036
988.806	42.5403
991.699	9.76564
994.592	30.3212
997.484	19.6157
1000.38	12.1376
1003.27	27.0236
1006.16	18.4356
1009.05	31.6626
1011.95	32.0562
1014.84	13.7719
1017.73	19.0464
1020.63	12.475
1023.52	13.3218
1026.41	23.7083
1029.3	19.2345
1032.2	52.008
1035.09	21.9596
1037.98	28.4277
1040.88	26.0852
1043.77	28.9487
1046.66	31.435
1049.55	10.7536
1052.45	15.4142
1055.34	7.06447
1058.23	28.4848
1061.12	15.0716
1064.02	27.2782
1066.91	20.635
1069.8	22.8315
1072.69	31.1623
1075.59	31.1062
1078.48	4.41934
1081.37	23.6623
1084.27	20.8692
1087.16	29.4679
1090.05	5.04732
1092.94	37.5879
1095.84	3.4964
1098.73	33.1273
1101.62	33.7685
1104.51	33.3194
1107.41	11.7928
1110.3	25.7113
1113.19	9.26068
1116.09	7.45578
1118.98	30.1278
1121.87	9.54336
1124.76	34.0622
1127.66	16.642
1130.55	19.697
1133.44	15.3433
1136.33	13.6365
1139.23	25.9471
1142.12	20.8609
1145.01	27.4576
1147.9	21.5549
1150.8	31.1913
1153.69	17.6348
1156.58	7.83975
1159.48	23.6616
1162.37	18.9953
1165.26	11.2468
1168.15	5.46918
1171.05	22.1917
1173.94	19.2195
1176.83	4.63629
1179.72	2.14006
1182.62	16.3804
1185.51	15.388
1188.4	17.2449
1191.3	17.9322
1194.19	34.3815
1197.08	13.9081
1199.97	18.7509
1202.87	0.781265
1205.76	23.3872
1208.65	18.8611
1211.54	17.1144
1214.44	28.4129
1217.33	7.98846
1220.22	19.8989
1223.12	5.97672
1226.01	35.6544
1228.9	11.1068
1231.79	18.2485
1234.69	2.12598
1237.58	18.0941
1240.47	1.24095
1243.36	27.9547
1246.26	27.5149
1249.15	22.4259
1252.04	18.2396
1254.93	24.8007
1257.83	22.2092
1260.72	44.1356
1263.61	15.5555
1266.51	19.7383
1269.4	31.3863
1272.29	0.211899
1275.18	15.7656
1278.08	34.8757
1280.97	42.5089
1283.86	5.5983
1286.75	11.5989
1289.65	1.90512
1292.54	6.33325
1295.43	28.4933
1298.33	37.37
1301.22	18.992
1304.11	2.78917
1307	51.6004
1309.9	3.87497
1312.79	5.55534
1315.68	13.274
