Measurement: Raman, 785 nm, unoriented, Raman Data Processed
Mineral: Domeykite
Rruff sample: R070435
Ideal chemistry: Cu_3_As
Locality: Algodones mines, El Algod√≥n, Huasco Province, Atacama Region,Chile
Source: Michael Scott
Description: Grey metallic massive associated with scorodite
Raman shift (cm-1)	intensity
174.062	0
176.955	3.37915
179.847	17.8592
182.74	8.75207
185.633	18.8368
188.525	48.2442
191.418	34.9044
194.311	66.6423
197.204	32.0686
200.096	58.4963
202.989	71.6564
205.882	53.6703
208.774	19.8367
211.667	19.6693
214.56	8.83789
217.452	13.3159
220.345	2.42517
223.238	3.73688
226.131	21.5472
229.023	20.3692
231.916	5.34723
234.809	5.37372
237.701	3.36951
240.594	2.20178
243.487	5.04553
246.38	24.1193
249.272	41.2259
252.165	48.4377
255.058	68.9483
257.95	54.1791
260.843	78.4673
263.736	109.693
266.628	123.183
269.521	131.684
272.414	143.764
275.307	156.959
278.199	184.394
281.092	185.87
283.985	226.73
286.877	229.032
289.77	221.165
292.663	228.301
295.555	219.022
298.448	216.345
301.341	220.181
304.233	253.301
307.126	242.765
310.019	260.61
312.912	277.798
315.804	284.653
318.697	310.21
321.59	305.912
324.482	334.983
327.375	318.086
330.268	361.087
333.161	330.505
336.053	305.252
338.946	211.838
341.839	197.362
344.731	130.763
347.624	137.517
350.517	134.931
353.409	110.278
356.302	136.328
359.195	112.312
362.087	102.128
364.98	140.21
367.873	114.437
370.766	107.922
373.658	32.9809
376.551	39.4579
379.444	22.539
382.336	8.96545
385.229	18.3885
388.122	12.4336
391.014	2.87592
393.907	2.01489
396.8	16.2199
399.693	7.8573
402.585	10.4531
405.478	2.52344
408.371	8.37848
411.263	5.58081
414.156	3.36865
417.049	32.9518
419.942	19.7469
422.834	19.1558
425.727	5.0351
428.62	29.5381
431.512	4.92593
434.405	10.9383
437.298	5.68277
440.19	2.11761
443.083	13.2259
445.976	13.712
448.868	20.7911
451.761	1.42847
454.654	38.1088
457.547	24.6881
460.439	25.7566
463.332	2.83856
466.225	28.9231
469.117	36.2112
472.01	26.7124
474.903	37.6164
477.796	23.2461
480.688	25.8347
483.581	41.9135
486.474	54.7415
489.366	50.1514
492.259	56.4436
495.152	17.4274
498.044	48.3493
500.937	29.56
503.83	30.901
506.723	24.4712
509.615	25.9804
512.508	51.5729
515.401	25.6647
518.293	35.9634
521.186	8.92929
524.079	29.7398
526.971	29.8142
529.864	39.7894
532.757	39.7429
535.649	7.56576
538.542	30.993
541.435	33.8977
544.328	10.0231
547.22	42.9857
550.113	24.7687
553.006	4.32214
555.898	28.3448
558.791	28.6464
561.684	33.2728
564.577	23.3872
567.469	30.6976
570.362	2.65686
573.255	1.75928
576.147	7.76837
579.04	4.7261
581.933	25.1752
584.825	16.5282
587.718	18.0392
590.611	26.7094
593.504	3.14816
596.396	9.13776
599.289	23.199
602.182	4.84427
605.074	23.2195
607.967	16.0735
610.86	18.857
613.752	13.2193
616.645	15.8982
619.538	45.7683
622.431	6.93314
625.323	4.57132
628.216	18.8432
631.109	4.44162
634.001	10.6659
636.894	21.3879
639.787	7.62384
642.679	25.7774
645.572	25.288
648.465	21.2032
651.357	22.7691
654.25	19.5189
657.143	23.6898
660.036	33.2445
662.928	1.61395
665.821	12.1303
668.714	7.29385
671.606	13.0365
674.499	22.698
677.392	3.62582
680.284	21.1446
683.177	1.26727
686.07	3.23669
688.963	19.7275
691.855	21.9398
694.748	10.4795
697.641	15.455
700.533	17.6329
703.426	19.9529
706.319	27.0775
709.212	5.07495
712.104	22.2755
714.997	5.1004
717.89	0.507324
720.782	1.03735
723.675	22.6981
726.568	30.7521
729.46	18.3029
732.353	12.6494
735.246	28.9002
738.139	10.0443
741.031	5.48651
743.924	12.344
746.817	32.3599
749.709	28.7497
752.602	16.941
755.495	10.3118
758.387	22.6104
761.28	13.2559
764.173	4.97641
767.066	29.1576
769.958	7.37878
772.851	21.347
775.744	4.42493
778.636	25.5525
781.529	1.40704
784.422	13.8453
787.314	1.0878
790.207	19.1856
793.1	30.8925
795.992	13.4037
798.885	13.0079
801.778	17.5543
804.671	14.8996
807.563	9.35516
810.456	16.7949
813.349	23.5217
816.241	19.7917
819.134	24.0771
822.027	28.3682
824.919	21.4218
827.812	24.4237
830.705	24.2486
833.598	26.4405
836.49	17.3142
839.383	8.63486
842.276	15.7143
845.168	16.0422
848.061	27.4705
850.954	25.7274
853.846	19.1832
856.739	38.8419
859.632	23.1984
862.525	13.2477
865.417	10.6579
868.31	5.48956
871.203	7.53046
874.095	8.7193
876.988	33.9279
879.881	34.8778
882.774	16.6968
885.666	26.2285
888.559	19.1663
891.452	51.5796
894.344	17.0802
897.237	24.9381
900.13	4.93466
903.022	9.56409
905.915	13.0286
908.808	31.1916
911.701	16.8666
914.593	21.7934
917.486	23.5979
920.379	27.2274
923.271	33.0909
926.164	5.49698
929.057	4.15088
931.949	8.69092
934.842	27.9662
937.735	24.4845
940.628	18.289
943.52	20.7455
946.413	18.961
949.306	11.487
952.198	8.8429
955.091	7.65448
957.984	23.1538
960.876	7.79291
963.769	10.4729
966.662	25.8419
969.554	10.2767
972.447	14.8299
975.34	21.8247
978.233	18.9024
981.125	2.79569
984.018	3.50058
986.911	7.23721
989.803	18.3314
992.696	22.0999
995.589	0.649567
998.481	38.3325
1001.37	18.7494
1004.27	31.1138
1007.16	28.8308
1010.05	17.3345
1012.95	3.84787
1015.84	2.95758
1018.73	11.6371
1021.62	0.768555
1024.52	0.628326
1027.41	12.4622
1030.3	8.14963
1033.19	2.26581
1036.09	1.67236
1038.98	24.2254
1041.87	23.7981
1044.77	23.5929
1047.66	19.6861
1050.55	30.8956
1053.44	5.66074
1056.34	13.6305
1059.23	2.27167
1062.12	19.003
1065.01	22.0053
1067.91	11.3009
1070.8	20.8905
1073.69	23.8845
1076.58	10.3095
1079.48	15.713
1082.37	1.09387
1085.26	15.6629
1088.15	7.13867
1091.05	11.3318
1093.94	17.2745
1096.83	6.35825
1099.73	18.5482
1102.62	25.1662
1105.51	4.01498
1108.4	39.6503
1111.3	18.3553
1114.19	15.0913
1117.08	21.8038
1119.97	17.3228
1122.87	41.7024
1125.76	21.5716
1128.65	25.9489
1131.55	36.3073
1134.44	24.5045
1137.33	26.387
1140.22	21.1206
1143.12	21.6691
1146.01	16.9234
1148.9	15.4025
1151.8	26.1584
1154.69	19.3472
1157.58	17.0993
1160.47	7.91672
1163.37	14.6502
1166.26	32.5281
1169.15	8.4502
1172.04	16.0939
1174.94	33.2785
1177.83	35.2136
1180.72	5.4281
1183.61	20.3203
1186.51	4.3735
1189.4	17.7054
1192.29	17.0638
1195.18	13.3987
1198.08	17.97
1200.97	21.2263
1203.86	14.5302
1206.76	5.52445
1209.65	20.4527
1212.54	7.67239
1215.43	23.1696
1218.33	12.9413
1221.22	29.6428
1224.11	25.8081
1227.01	24.5222
1229.9	21.2249
1232.79	19.6008
1235.68	19.095
1238.58	13.4715
1241.47	10.7123
