Measurement: Raman, 780 nm, unoriented, Raman Data Processed
Mineral: Donnayite-(Y)
Rruff sample: R110164
Ideal chemistry: NaSr_3_CaY(CO_3_)_6_3H_2_O
Locality: Mont St. Hilaire, Quebec, Canada
Source: Donald M Doell
Description: Aggregate of greenish-grey platy crystals in a prismatic hexagonal stacking, associated with siderite, rhodochrosite and albite
Raman shift (cm-1)	intensity
93.532	7204.86
96.9068	7980.86
100.282	7959.91
103.656	7926.63
107.031	8165.95
110.406	8537.42
113.781	8977.72
117.156	9521.45
120.531	10089
123.905	10714.1
127.28	11422.5
130.655	12129.5
134.03	12539.1
137.405	13206
140.779	14154.2
144.154	15412.6
147.529	16866.4
150.904	17918.5
154.279	18657.7
157.654	19127.1
161.028	19318.7
164.403	19362.3
167.778	19077.9
171.153	18744.3
174.528	18566.4
177.902	18549.7
181.277	18779.6
184.652	19327.6
188.027	20005.5
191.402	21105.1
194.776	22341
198.151	23583.3
201.526	24799.4
204.901	25926.5
208.276	26927.5
211.651	27517.8
215.025	27961.4
218.4	28201.3
221.775	28400.2
225.15	28466.2
228.525	28437.9
231.899	28458
235.274	28529.1
238.649	28810.2
242.024	29099.1
245.399	29501.6
248.774	29689.1
252.148	29452.2
255.523	28947.4
258.898	28396.2
262.273	27996.2
265.648	27988.9
269.022	28606.1
272.397	29902.7
275.772	31853.3
279.147	34374.2
282.522	37299.7
285.897	40328.7
289.271	42954
292.646	44396.5
296.021	43978.1
299.396	42134.4
302.771	39394.8
306.145	36773.2
309.52	34818.5
312.895	33575.3
316.27	33094.7
319.645	33118.4
323.019	33526.6
326.394	34185
329.769	35063.8
333.144	35892.8
336.519	36615.1
339.894	36945.9
343.268	36903.5
346.643	36344.6
350.018	35575.8
353.393	34452.6
356.768	33264.9
360.142	32034.5
363.517	30905.6
366.892	29704
370.267	28590.6
373.642	27230.6
377.017	26065.8
380.391	24880.2
383.766	23829.4
387.141	22850.1
390.516	22088.4
393.891	21394.7
397.265	20835.6
400.64	20422.8
404.015	20118
407.39	19923.5
410.765	19825.5
414.14	19828.1
417.514	19857
420.889	19888.7
424.264	19844.7
427.639	19675.2
431.014	19362.8
434.389	18892.1
437.763	18418.5
441.138	17869.2
444.513	17409
447.888	16907.5
451.263	16452.6
454.637	16030.8
458.012	15627.5
461.387	15289.8
464.762	14972.6
468.137	14637.3
471.512	14394.5
474.886	14152.1
478.261	13867.9
481.636	13661.8
485.011	13438.1
488.386	13289.6
491.76	13111.8
495.135	13086.9
498.51	12974.8
501.885	12893
505.26	12915.7
508.635	12938
512.009	13006.1
515.384	13100.8
518.759	13181.8
522.134	13331.7
525.509	13489.6
528.883	13684.8
532.258	13922.2
535.633	14182.4
539.008	14350.3
542.383	14518
545.757	14637.9
549.132	14658.7
552.507	14679.1
555.882	14535.9
559.257	14228.2
562.631	13842.3
566.006	13331.3
569.381	12754.1
572.756	12124.3
576.131	11518.9
579.506	11018.4
582.88	10535.6
586.255	10182.9
589.63	9809.94
593.005	9555.72
596.38	9355.73
599.755	9125.25
603.129	8962.02
606.504	8786.07
609.879	8610.53
613.254	8465.36
616.629	8318.68
620.003	8181.68
623.378	8046.21
626.753	7940.11
630.128	7882.19
633.503	7845.22
636.878	7715.29
640.252	7676.05
643.627	7578.93
647.002	7536.49
650.377	7461.47
653.752	7414.76
657.126	7376.86
660.501	7360.35
663.876	7371.16
667.251	7491.69
670.626	7536.86
674	7671.43
677.375	7761.4
680.75	7907.31
684.125	8005.18
687.5	8157.7
690.875	8195.47
694.249	8230.18
697.624	8139.71
700.999	7947.55
704.374	7654.56
707.749	7491.3
711.124	7333.85
714.498	7307.82
717.873	7361.96
721.248	7082.64
724.623	6845.06
727.998	6650.04
731.372	6440.78
734.747	6257.28
738.122	6175.96
741.497	6023.49
744.872	5983.15
748.246	6013.48
751.621	6052.05
754.996	6198.67
758.371	6320.81
761.746	6542.43
765.12	6667.61
768.495	6861.53
771.87	6916.73
775.245	6941.24
778.62	6947.15
781.995	6823.51
785.369	6664.61
788.744	6487.05
792.119	6263.89
795.494	5987.41
798.869	5714.97
802.244	5397.87
805.618	5151.64
808.993	4895.15
812.368	4664.77
815.743	4447.7
819.118	4333.55
822.492	4144.01
825.867	3973.26
829.242	3829.22
832.617	3710.99
835.992	3606.51
839.366	3529.29
842.741	3454.71
846.116	3382.99
849.491	3320.47
852.866	3294.12
856.241	3231.52
859.615	3201.92
862.99	3153.97
866.365	3147.96
869.74	3135.32
873.115	3102.78
876.49	3091.44
879.864	3137.57
883.239	3068.39
886.614	3117.09
889.989	3097.84
893.364	3156.1
896.738	3159.39
900.113	3202.64
903.488	3216.36
906.863	3316.93
910.238	3360.04
913.612	3407.69
916.987	3473.42
920.362	3549.41
923.737	3634.89
927.112	3706.27
930.487	3803.61
933.861	3927.03
937.236	4016.66
940.611	4144.88
943.986	4280.31
947.361	4429.76
950.736	4522.14
954.11	4674.09
957.485	4818.65
960.86	5020.26
964.235	5222.91
967.61	5427.13
970.984	5608.37
974.359	5805.97
977.734	6018.22
981.109	6265.38
984.484	6539
987.859	6754.43
991.233	7021.81
994.608	7306.01
997.983	7562.14
1001.36	7840.81
1004.73	8186.97
1008.11	8500.48
1011.48	8808.93
1014.86	9127.99
1018.23	9515.2
1021.61	9821.73
1024.98	10181.1
1028.36	10577.3
1031.73	11029.6
1035.11	11397.7
1038.48	11844
1041.86	12224.5
1045.23	12747
1048.61	13215.4
1051.98	13696.7
1055.36	14352.2
1058.73	15110.9
1062.1	15938.2
1065.48	16842.9
1068.85	17918
1072.23	19173.8
1075.6	20113.6
1078.98	20952.7
1082.35	22978.5
1085.73	23282.8
1089.1	22187
1092.48	22129.2
1095.85	22714.8
1099.23	23403.2
1102.6	24462.5
1105.98	25518.7
1109.35	26824.5
1112.73	27871.5
1116.1	29102.3
1119.48	30534.9
1122.85	32089
1126.23	33689.2
1129.6	35500.9
1132.98	37408.7
1136.35	39596.1
1139.72	41913.8
1143.1	44362.1
1146.47	47292.9
1149.85	50351.2
1153.22	53727.8
1156.6	57394.7
1159.97	61624.5
1163.35	66341.3
1166.72	71531.4
1170.1	77391
1173.47	84068.7
1176.85	91224.4
1180.22	99507.6
1183.6	107228
1186.97	115326
1190.35	122853
1193.72	129046
1197.1	134217
1200.47	137900
1203.85	140850
1207.22	143232
1210.6	145081
1213.97	146793
1217.35	148985
1220.72	151230
1224.1	154573
1227.47	159331
1230.85	164334
1234.22	170333
1237.6	176153
1240.97	181416
1244.34	186402
1247.72	191225
1251.09	193622
1254.47	195559
1257.84	197523
1261.22	199214
1264.59	201039
1267.97	202366
1271.34	204623
1274.72	207512
1278.09	212231
1281.47	218336
1284.84	227720
