Measurement: Raman, 532 nm, unoriented, Raman Data Processed
Mineral: Dufrenoysite
Rruff sample: R070579
Ideal chemistry: Pb^2+^_2_As^3+^_2_S^2-^_5_
Locality: Lengenbach Quarry, Imfeld, Binnental, Valais, Switzerland
Source: James Shigley
Description: Lead gray metallic prismatic crystals associated with pyrite and dolomite
Measured chemistry: (Pb_1.71_Tl_0.08_Sb_0.04_Ag_0.03_)_Î£1.86_As_2.05_S_5.00
Raman shift (cm-1)	intensity
144.345	0
147.237	51.2249
150.13	52.702
153.023	77.8769
155.915	52.0837
158.808	29.6334
161.701	49.2374
164.593	35.3433
167.486	110.69
170.379	44.4145
173.272	23.7468
176.164	47.1132
179.057	36.6063
181.95	24.3226
184.842	49.1351
187.735	13.3586
190.628	11.8854
193.52	25.1183
196.413	43.5399
199.306	24.911
202.198	49.0437
205.091	47.7036
207.984	19.0535
210.877	30.9273
213.769	26.2507
216.662	42.4273
219.555	56.6759
222.447	39.172
225.34	61.7881
228.233	73.0514
231.125	28.3795
234.018	86.2472
236.911	28.5967
239.804	11.8921
242.696	53.7883
245.589	84.5343
248.482	55.7814
251.374	52.9868
254.267	26.5497
257.16	23.0533
260.053	12.3908
262.945	3.37097
265.838	23.0897
268.731	0.41272
271.623	15.7516
274.516	43.4695
277.409	12.9375
280.301	29.1104
283.194	44.9846
286.087	78.2736
288.979	70.1631
291.872	42.7673
294.765	41.0592
297.658	79.0264
300.55	110.127
303.443	54.431
306.336	52.3417
309.228	61.1302
312.121	39.0128
315.014	27.6279
317.906	32.0055
320.799	21.851
323.692	34.7313
326.584	40.0098
329.477	75.106
332.37	45.6176
335.263	37.0745
338.155	34.4419
341.048	51.2716
343.941	15.5457
346.833	71.886
349.726	71.1294
352.619	84.4744
355.512	102.282
358.404	102.887
361.297	124.346
364.19	103.166
367.082	96.9883
369.975	117.672
372.868	123.594
375.76	102.213
378.653	85.0874
381.546	80.5056
384.438	75.93
387.331	27.8215
390.224	21.8568
393.117	22.0691
396.009	24.2412
398.902	17.8103
401.795	4.47571
404.687	17.145
407.58	4.9325
410.473	27.6593
413.365	19.7812
416.258	1.68323
419.151	24.0076
422.044	2.20581
424.936	4.87769
427.829	33.8673
430.722	22.1473
433.614	48.9017
436.507	25.8909
439.4	5.30237
442.293	50.7673
445.185	11.6587
448.078	36.9427
450.971	36.0662
453.863	28.1362
456.756	68.078
459.649	20.6376
462.541	61.8087
465.434	29.8365
468.327	52.583
471.219	30.7202
474.112	49.6365
477.005	51.616
479.898	28.1515
482.79	45.1801
485.683	55.0808
488.576	45.8934
491.468	47.9048
494.361	40.7904
497.254	26.3247
500.147	37.8241
503.039	58.8967
505.932	6.3689
508.825	23.1327
511.717	48.271
514.61	45.5021
517.503	13.9801
520.395	32.9197
523.288	42.454
526.181	54.6423
529.073	47.3025
531.966	1.60388
534.859	12.7734
537.751	67.3076
540.644	18.0322
543.537	24.0286
546.43	22.0271
549.322	47.6611
552.215	34.2587
555.108	22.3275
558	38.0435
560.893	26.6385
563.786	45.6912
566.678	26.2306
569.571	46.7601
572.464	45.3147
575.357	13.3206
578.249	22.1123
581.142	28.6121
584.035	10.8834
586.927	16.4155
589.82	29.6317
592.713	12.9519
595.606	45.3792
598.498	19.2436
601.391	12.8058
604.284	23.9678
607.176	6.29761
610.069	3.77466
612.962	25.9015
615.854	15.2765
618.747	20.0626
621.64	27.1456
624.533	7.7677
627.425	42.257
630.318	35.4387
633.211	56.8822
636.103	41.2065
638.996	23.6074
641.889	18.0807
644.781	28.2958
647.674	48.5399
650.567	59.8071
653.46	40.5196
656.352	46.8799
659.245	4.6875
662.138	25.1003
665.03	36.8802
667.923	4.8689
670.816	34.0461
673.708	12.9974
676.601	2.2113
679.494	16.7286
682.386	35.7859
685.279	44.1309
688.172	27.4054
691.064	35.6008
693.957	23.5394
696.85	20.1814
699.743	45.786
702.635	19.7367
705.528	67.7002
708.421	12.8745
711.313	3.66821
714.206	21.1348
717.099	35.6088
719.991	65.267
722.884	7.32666
725.777	42.0148
728.67	3.3092
731.562	60.3096
734.455	20.662
737.348	36.0714
740.24	4.65247
743.133	43.8102
746.026	36.981
748.918	1.23682
751.811	35.1378
754.704	30.0906
757.597	27.6238
760.489	25.7144
763.382	14.9108
766.275	55.3861
769.167	21.1173
772.06	23.8458
774.953	9.73511
777.846	13.9244
780.738	6.16309
783.631	10.5877
786.524	19.2678
789.416	1.53809
792.309	24.77
795.202	53.421
798.094	17.5831
800.987	22.7711
803.88	36.9833
806.773	27.3685
809.665	20.8859
812.558	16.2739
815.451	21.4135
818.343	13.5568
821.236	32.5354
824.129	18.9653
827.021	28.6257
829.914	8.53394
832.807	14.1149
835.699	38.319
838.592	14.981
841.485	7.48914
844.378	40.4656
847.27	30.4334
850.163	29.4865
853.056	32.6221
855.948	2.06641
858.841	38.0188
861.734	39.6224
864.626	0.826294
867.519	36.3687
870.412	11.6089
873.304	39.1616
876.197	23.3926
879.09	10.1368
881.983	11.4207
884.875	23.4647
887.768	17.4297
890.661	23.8186
893.553	3.04333
896.446	20.0891
899.339	29.8555
902.231	15.1408
905.124	8.70447
908.017	12.634
910.91	55.1057
913.802	35.3414
916.695	60.5872
919.588	23.4968
922.48	29.9688
925.373	31.8648
928.266	30.7439
931.158	3.57532
934.051	17.6135
936.944	35.8204
939.837	42.4049
942.729	42.0102
945.622	21.1482
948.515	27.5038
951.407	40.4456
954.3	38.4247
957.193	19.3818
960.085	14.4404
962.978	12.4594
965.871	39.6025
968.764	8.32971
971.656	22.8555
974.549	27.569
977.442	11.762
980.334	34.8219
983.227	18.2895
986.12	44.4789
989.013	10.1138
991.905	5.70654
994.798	14.6536
997.691	14.0726
1000.58	16.3826
1003.48	1.86377
1006.37	31.8402
1009.26	29.7609
1012.15	10.5117
1015.05	11.1278
1017.94	17.0448
1020.83	16.0253
1023.73	22.5646
1026.62	36.3897
1029.51	16.8276
1032.4	41.3328
1035.3	8.22034
1038.19	48.4222
1041.08	10.1725
1043.97	22.6045
1046.87	26.5557
1049.76	22.8923
1052.65	43.2345
1055.55	23.2181
1058.44	11.7588
1061.33	8.93994
1064.22	25.2349
1067.12	14.4497
1070.01	34.2421
1072.9	30.343
1075.79	1.91699
1078.69	18.9368
1081.58	4.04736
1084.47	45.4895
1087.36	35.1393
1090.26	9.89844
1093.15	34.0526
1096.04	46.3442
1098.93	61.9635
1101.83	38.3879
1104.72	45.3706
1107.61	4.92163
1110.51	10.2191
1113.4	23.1007
1116.29	35.8754
1119.18	20.8545
1122.08	24.4209
1124.97	12.9554
1127.86	1.36633
1130.76	19.9959
1133.65	14.0408
1136.54	39.6469
1139.43	2.23279
1142.33	17.1857
1145.22	17.3668
1148.11	16.7334
1151	33.3693
1153.9	3.23669
1156.79	26.5338
1159.68	16.006
1162.57	23.5817
1165.47	25.6627
1168.36	22.0493
1171.25	5.37146
1174.14	15.8279
1177.04	23.5071
1179.93	18.9517
1182.82	31.2888
1185.72	16.8966
1188.61	5.51587
1191.5	77.4695
1194.39	19.6398
1197.29	4.20483
1200.18	3.4956
1203.07	38.9578
1205.96	13.1757
1208.86	47.773
1211.75	0.488403
1214.64	25.4627
1217.54	21.1794
1220.43	50.9834
1223.32	37.8585
1226.21	12.1511
1229.11	35.1529
1232	19.5826
1234.89	12.9144
1237.79	10.7098
1240.68	12.7408
1243.57	37.1934
1246.46	18.7635
1249.36	21.7482
1252.25	27.8901
1255.14	44.4541
1258.03	41.2539
1260.93	15.0453
1263.82	49.8186
1266.71	3.88037
1269.6	45.5322
1272.5	37.4578
1275.39	46.131
1278.28	31.4475
