Measurement: Raman, 780 nm, unoriented, Raman Data Processed
Mineral: Dundasite
Rruff sample: R060760
Ideal chemistry: Pb^2+^Al_2_(CO_3_)_2_(OH)_4_H_2_O
Locality: Daoping mine, Guangxi, China
Source: Michael Scott
Description: Spherical aggregates of pale green acicular crystals, associated with colorless cerussite, anglesite, and blue linarite R120094.
Raman shift (cm-1)	intensity
122.921	0
126.296	4.71716
129.671	13.8246
133.045	7.78711
136.42	0.210693
139.795	3.54004
143.17	1.21069
146.545	4.38757
149.919	8.43579
153.294	4.01758
156.669	4.06738
160.044	7.94275
163.419	9.71826
166.793	12.6999
170.168	17.9781
173.543	20.5847
176.918	13.1819
180.293	8.16821
183.667	9.14856
187.042	10.5396
190.417	16.4699
193.792	14.1462
197.167	10.2389
200.542	4.05273
203.916	4.5011
207.291	8.11462
210.666	11.0425
214.041	10.2056
217.416	8.50269
220.791	14.5687
224.165	19.5881
227.54	25.8315
230.915	32.946
234.29	32.3599
237.665	24.2564
241.039	13.3823
244.414	15.7793
247.789	5.30835
251.164	8.15723
254.539	2.82642
257.913	7.09363
261.288	0.555908
264.663	1.29321
268.038	3.54138
271.413	8.72693
274.788	9.40967
278.162	4.06628
281.537	16.7607
284.912	8.28088
288.287	3.66052
291.662	8.17615
295.036	6.08289
298.411	12.4501
301.786	8.62793
305.161	6.11243
308.536	5.36011
311.911	6.349
315.285	7.81165
318.66	12.5431
322.035	10.5457
325.41	0.078491
328.784	4.55713
332.159	3.14697
335.534	1.07312
338.909	0.558105
342.284	3.85388
345.659	4.26184
349.033	7.34326
352.408	2.46497
355.783	0.234863
359.158	5.15112
362.533	2.99304
365.908	2.92993
369.282	4.32703
372.657	4.54346
376.032	2.20398
379.407	4.76819
382.782	8.2887
386.156	3.99085
389.531	1.93799
392.906	2.86792
396.281	0.608887
399.656	2.42371
403.031	0.317383
406.405	0.230713
409.78	4.09485
413.155	3.33801
416.53	0.343018
419.904	6.44446
423.279	11.706
426.654	11.1409
430.029	5.11487
433.404	11.1254
436.779	16.5759
440.153	19.24
443.528	23.3965
446.903	18.0877
450.278	4.74512
453.653	13.6036
457.027	4.20642
460.402	6.8512
463.777	6.97913
467.152	6.82739
470.527	5.73303
473.902	13.1707
477.276	13.7206
480.651	6.8064
484.026	5.42896
487.401	5.48035
490.776	1.45679
494.151	9.11182
497.525	4.12293
500.9	7.26941
504.275	7.29077
507.65	0.057251
511.024	6.40491
514.399	3.97339
517.774	5.87476
521.149	0.980469
524.524	5.4552
527.899	6.34582
531.273	0.2323
534.648	0.060425
538.023	2.91296
541.398	4.20178
544.773	5.30249
548.148	5.2345
551.522	6.87952
554.897	5.71924
558.272	4.59985
561.647	9.24719
565.021	8.94116
568.396	6.86646
571.771	5.34766
575.146	10.8994
578.521	6.71448
581.896	2.34192
585.27	5.66968
588.645	3.57666
592.02	5.61316
595.395	0.475342
598.77	6.7262
602.144	3.92212
605.519	5.33325
608.894	6.50244
612.269	5.68384
615.644	3.93603
619.019	4.76221
622.393	10.3724
625.768	5.80981
629.143	4.38257
632.518	5.06897
635.893	5.37659
639.268	3.11182
642.642	0.865356
646.017	2.80078
649.392	2.35742
652.767	1.88428
656.141	3.48938
659.516	2.58997
662.891	0.122437
666.266	2.37183
669.641	6.08081
673.016	4.32678
676.39	2.71033
679.765	5.03613
683.14	0.812256
686.515	7.50964
689.89	3.39563
693.264	2.11865
696.639	2.3064
700.014	0.082764
703.389	1.77307
706.764	5.32385
710.139	1.29041
713.513	3.69019
716.888	5.85938
720.263	7.97327
723.638	0.724121
727.013	2.17639
730.388	2.41553
733.762	5.00073
737.137	12.6174
740.512	4.18896
743.887	3.90015
747.261	4.14392
750.636	1.70154
754.011	5.58179
757.386	0.536865
760.761	6.4303
764.136	0.565918
767.51	0.086426
770.885	0.733398
774.26	1.54565
777.635	3.5304
781.01	2.84949
784.385	0.043579
787.759	7.91394
791.134	5.58814
794.509	7.94836
797.884	6.0697
801.259	0.585449
804.633	3.72119
808.008	6.30786
811.383	6.90149
814.758	7.73694
818.133	9.70166
821.507	8.20734
824.882	3.16479
828.257	4.42517
831.632	8.15955
835.007	7.31738
838.381	5.51648
841.756	8.89423
845.131	6.37976
848.506	6.58679
851.881	7.56787
855.256	9.52258
858.63	6.10156
862.005	6.04205
865.38	11.7483
868.755	10.0878
872.13	1.35291
875.505	3.87824
878.879	4.64221
882.254	2.84943
885.629	5.45233
889.004	1.40625
892.379	4.12506
895.753	1.21393
899.128	3.75531
902.503	1.29895
905.878	0.649597
909.253	2.66382
912.627	3.01697
916.002	0.891724
919.377	1.99792
922.752	2.75305
926.127	2.64752
929.501	3.0899
932.876	3.91174
936.251	2.00574
939.626	4.1394
943.001	3.6391
946.376	3.33337
949.75	1.41266
953.125	0.691406
956.5	3.6864
959.875	2.79791
963.25	0.913818
966.625	0.554749
969.999	2.71777
973.374	1.55121
976.749	4.33612
980.124	1.7829
983.499	5.99335
986.873	1.98273
990.248	0.428833
993.623	7.73914
996.998	3.74213
1000.37	1.38153
1003.75	2.25873
1007.12	3.31928
1010.5	5.3288
1013.87	7.64654
1017.25	1.54877
1020.62	10.212
1024	5.9693
1027.37	4.79376
1030.75	4.36652
1034.12	5.03986
1037.5	6.98309
1040.87	9.03046
1044.24	11.1031
1047.62	3.5484
1050.99	8.63135
1054.37	1.37683
1057.74	4.73505
1061.12	8.83563
1064.49	5.83984
1067.87	7.30304
1071.24	13.2469
1074.62	11.5024
1077.99	16.0026
1081.37	21.5465
1084.74	25.1961
1088.12	33.3094
1091.49	27.8638
1094.87	24.3018
1098.24	20.0151
1101.62	13.5613
1104.99	2.85919
1108.37	3.02026
1111.74	8.2677
1115.12	2.13062
1118.49	0.05426
1121.87	4.47089
1125.24	2.83344
1128.62	4.35407
1131.99	0.795105
1135.37	3.08405
1138.74	0.350159
1142.12	3.40839
1145.49	1.45624
1148.87	2.48407
1152.24	1.27771
1155.61	4.65918
1158.99	5.0993
1162.36	4.79401
1165.74	4.78168
1169.11	4.55341
1172.49	5.93646
1175.86	3.35516
1179.24	3.70764
1182.61	3.44763
1185.99	5.71851
1189.36	3.8891
1192.74	7.33295
1196.11	7.45862
1199.49	4.17694
1202.86	7.76318
1206.24	8.93701
1209.61	6.73584
1212.99	9.91675
1216.36	9.03332
1219.74	8.50049
1223.11	10.2082
1226.48	10.7735
1229.86	13.6865
1233.23	14.1284
1236.61	16.005
1239.98	14.602
1243.36	12.2395
1246.73	8.44995
1250.11	3.8092
1253.48	6.30926
1256.86	0.375183
1260.23	0.956848
1263.61	2.87964
1266.98	6.35388
1270.36	2.09369
1273.73	5.38513
1277.11	9.11707
1280.48	5.45404
1283.86	4.36359
