Measurement: Raman, 780 nm, unoriented, Raman Data Processed
Mineral: Dundasite
Rruff sample: R090038
Ideal chemistry: Pb^2+^Al_2_(CO_3_)_2_(OH)_4_H_2_O
Locality: Tsumeb, Namibia
Source: William W. Pinch
Description: Colorless acicular crystals in spherical aggregates on matrix.
Raman shift (cm-1)	intensity
111.35	0
114.725	1.03854
118.1	5.11163
121.475	5.8335
124.849	11.1862
128.224	9.2254
131.599	7.83347
134.974	0.520538
138.349	1.86719
141.723	2.41144
145.098	7.32983
148.473	7.10593
151.848	3.3042
155.223	5.80633
158.597	8.21185
161.972	11.4427
165.347	19.4465
168.722	25.1349
172.097	24.3578
175.472	20.4094
178.846	16.8354
182.221	18.0561
185.596	17.0803
188.971	21.103
192.346	12.6439
195.72	9.81439
199.095	5.37677
202.47	3.26529
205.845	1.81528
209.22	1.0173
212.595	5.8754
215.969	8.5181
219.344	14.369
222.719	20.78
226.094	27.5532
229.469	29.8808
232.843	29.2932
236.218	20.5913
239.593	11.0217
242.968	5.12549
246.343	0.455261
249.718	1.62256
253.092	0.648438
256.467	3.87881
259.842	1.96622
263.217	0.173065
266.592	2.32886
269.966	2.90979
273.341	2.72723
276.716	4.35818
280.091	5.53418
283.466	6.75711
286.84	5.98318
290.215	9.81525
293.59	8.43475
296.965	8.54526
300.34	8.26053
303.714	12.2235
307.089	6.12567
310.464	10.3277
313.839	9.83026
317.214	10.3997
320.589	6.45441
323.963	3.18137
327.338	2.64505
330.713	0.881226
334.088	0.999878
337.463	3.18884
340.837	1.5867
344.212	6.31891
347.587	3.60819
350.962	1.4671
354.337	1.0665
357.712	0.57666
361.086	1.42062
364.461	3.73193
367.836	2.99432
371.211	4.15002
374.586	4.14185
377.96	0.496002
381.335	5.73328
384.71	0.455109
388.085	3.36764
391.46	5.07303
394.834	3.27689
398.209	1.44495
401.584	5.44943
404.959	3.97449
408.334	6.59015
411.709	5.96698
415.083	6.32867
418.458	4.95114
421.833	8.92093
425.208	6.98611
428.583	11.8214
431.957	9.55734
435.332	7.93918
438.707	8.64188
442.082	4.42798
445.457	6.2153
448.832	3.80017
452.206	1.72278
455.581	3.64114
458.956	5.16666
462.331	2.83041
465.706	4.27609
469.08	1.16119
472.455	3.4046
475.83	3.68335
479.205	4.8367
482.58	0.37619
485.954	3.65735
489.329	1.66077
492.704	1.42166
496.079	2.56058
499.454	2.83511
502.829	1.74478
506.203	4.58618
509.578	1.14664
512.953	1.77872
516.328	2.63553
519.703	3.85938
523.077	2.80945
526.452	1.83295
529.827	1.90936
533.202	3.5462
536.577	3.81046
539.952	4.5907
543.326	3.17993
546.701	5.15683
550.076	7.37842
553.451	7.94742
556.826	7.32626
560.2	10.0827
563.575	7.6803
566.95	9.17947
570.325	7.08026
573.7	11.3065
577.074	10.4615
580.449	7.44717
583.824	8.79437
587.199	6.91901
590.574	8.48059
593.948	5.30801
597.323	4.76248
600.698	6.93814
604.073	9.18164
607.448	7.1926
610.823	3.99261
614.197	5.45953
617.572	5.19705
620.947	6.33786
624.322	7.23773
627.697	6.82114
631.072	6.37619
634.446	6.33084
637.821	0.204636
641.196	0.55571
644.571	2.51389
647.946	2.9427
651.32	0.659866
654.695	0.350388
658.07	3.95165
661.445	2.84904
664.82	1.35489
668.194	0.37561
671.569	3.07222
674.944	0.175873
678.319	2.34807
681.694	0.379028
685.068	1.55913
688.443	1.86014
691.818	2.11017
695.193	2.7834
698.568	1.57503
701.943	2.69322
705.317	3.27336
708.692	5.17213
712.067	1.44519
715.442	4.94508
718.817	3.20476
722.192	4.91531
725.566	1.66872
728.941	2.54916
732.316	1.0076
735.691	2.58108
739.066	2.66931
742.44	2.8548
745.815	2.65681
749.19	4.10934
752.565	3.29375
755.94	4.0121
759.314	3.23035
762.689	0.292648
766.064	3.30794
769.439	3.2579
772.814	0.639893
776.188	1.59123
779.563	3.14705
782.938	4.2583
786.313	1.37071
789.688	0.28952
793.063	6.88762
796.437	3.15469
799.812	4.20316
803.187	0.658035
806.562	6.4299
809.937	4.89952
813.312	5.0056
816.686	4.95128
820.061	2.49197
823.436	5.96982
826.811	3.50819
830.186	3.95155
833.56	6.8364
836.935	4.01703
840.31	7.47694
843.685	8.52484
847.06	3.57738
850.434	5.01349
853.809	3.73874
857.184	6.26125
860.559	2.99779
863.934	6.12744
867.308	2.52797
870.683	3.78294
874.058	0.820724
877.433	2.15727
880.808	2.37041
884.183	3.61937
887.557	2.67032
890.932	2.92586
894.307	5.38997
897.682	3.79559
901.057	1.56216
904.432	0.974533
907.806	0.548416
911.181	0.562881
914.556	2.49239
917.931	0.084625
921.306	0.184677
924.68	1.71623
928.055	4.13593
931.43	2.33702
934.805	2.10977
938.18	3.52084
941.554	3.42055
944.929	3.0318
948.304	3.39809
951.679	3.338
955.054	2.17027
958.428	2.95226
961.803	2.40991
965.178	2.72261
968.553	4.80792
971.928	3.98738
975.303	2.65556
978.677	3.46738
982.052	0.028214
985.427	1.96735
988.802	2.7645
992.177	2.56627
995.552	2.83408
998.926	0.263901
1002.3	3.03792
1005.68	3.34477
1009.05	0.089981
1012.43	3.19153
1015.8	1.0453
1019.17	4.75786
1022.55	4.05183
1025.92	3.07796
1029.3	1.23048
1032.67	0.339386
1036.05	1.68901
1039.42	3.27271
1042.8	2.61917
1046.17	5.77534
1049.55	6.25107
1052.92	1.58534
1056.3	4.1068
1059.67	5.66244
1063.05	5.9066
1066.42	10.6057
1069.8	10.8808
1073.17	15.1578
1076.55	21.0821
1079.92	29.9429
1083.3	34.7784
1086.67	40.3085
1090.05	37.9396
1093.42	34.7455
1096.8	24.6202
1100.17	17.6254
1103.55	8.52455
1106.92	8.95511
1110.3	5.84679
1113.67	5.07385
1117.05	1.40068
1120.42	2.95596
1123.79	4.78775
1127.17	2.59778
1130.54	0.173996
1133.92	2.64641
1137.29	1.41074
1140.67	0.50705
1144.04	1.57336
1147.42	1.66287
1150.79	0.66478
1154.17	5.16675
1157.54	4.41814
1160.92	0.336029
1164.29	2.42941
1167.67	6.47369
1171.04	3.96614
1174.42	1.19499
1177.79	4.26201
1181.17	3.53536
1184.54	4.16409
1187.92	6.34804
1191.29	7.38959
1194.67	5.78439
1198.04	3.65923
1201.41	4.45402
1204.79	4.65201
1208.16	5.61769
1211.54	4.37518
1214.91	3.24686
1218.29	4.59666
1221.66	2.15663
1225.04	0.142578
1228.41	3.19281
1231.79	5.45045
1235.16	0.052094
1238.54	3.12793
1241.91	1.47554
1245.29	4.48822
1248.66	0.830872
1252.04	2.87891
1255.41	2.67926
1258.79	2.40053
1262.16	4.85486
1265.54	4.10977
1268.91	1.7661
1272.29	5.84409
1275.66	3.47935
1279.04	3.46011
1282.41	1.30272
1285.79	0.320236
