Measurement: Raman, 532 nm, unoriented, Raman Data Processed
Mineral: Dyscrasite
Rruff sample: R061043
Ideal chemistry: Ag_3.2_Sb_0.8_
Locality: Uranium mine no. 21, Pribram, Czech Republic
Source: Michael Scott
Description: Metallic silver-white tarnished striated prismatic single crystals
Raman shift (cm-1)	intensity
139.843	0
142.736	1.79102
145.629	16.7826
148.522	34.4194
151.414	4.29126
154.307	22.4307
157.2	24.074
160.092	28.4456
162.985	83.1295
165.878	82.4364
168.77	76.6272
171.663	100.315
174.556	64.6195
177.448	99.4781
180.341	96.7805
183.234	123.192
186.127	142.724
189.019	124.117
191.912	120.515
194.805	154.066
197.697	141.929
200.59	142.857
203.483	137.828
206.375	148.49
209.268	135.462
212.161	130.731
215.054	147.927
217.946	139.988
220.839	164.656
223.732	155.807
226.624	142.724
229.517	182.34
232.41	178.606
235.303	176.016
238.195	174.934
241.088	137.17
243.981	173.901
246.873	177.082
249.766	167.261
252.659	138.557
255.551	148.88
258.444	136.549
261.337	100.759
264.229	128.742
267.122	141.089
270.015	125.718
272.908	109.639
275.8	99.0046
278.693	74.1145
281.586	68.3539
284.478	58.1103
287.371	37.9982
290.264	8.39587
293.156	25.5945
296.049	37.4702
298.942	14.1658
301.834	18.8667
304.727	10.6888
307.62	26.1661
310.513	12.3417
313.405	21.1963
316.298	53.9429
319.191	19.8815
322.083	2.14356
324.976	0.832642
327.869	32.9864
330.762	4.42297
333.654	16.7417
336.547	23.5831
339.44	24.6262
342.332	6.005
345.225	29.3112
348.118	7.23425
351.01	30.673
353.903	16.8701
356.796	26.4005
359.688	33.3907
362.581	20.6063
365.474	22.8845
368.366	44.0652
371.259	41.8164
374.152	51.4473
377.045	33.8705
379.937	21.118
382.83	41.5676
385.723	54.257
388.615	28.1508
391.508	26.0617
394.401	12.8291
397.293	44.5543
400.186	32.9283
403.079	17.2828
405.972	22.4839
408.864	0.999146
411.757	9.87622
414.65	14.8226
417.542	31.879
420.435	3.73401
423.328	13.7312
426.221	18.4423
429.113	3.6283
432.006	36.1279
434.899	26.8978
437.791	34.526
440.684	16.2812
443.577	9.37183
446.469	18.2413
449.362	22.953
452.255	28.8524
455.147	51.3054
458.04	29.1459
460.933	26.3264
463.826	36.7875
466.718	49.1819
469.611	47.4199
472.504	23.4679
475.396	37.6284
478.289	45.522
481.182	37.6765
484.074	47.3403
486.967	45.1946
489.86	32.5492
492.752	57.3678
495.645	56.6938
498.538	34.7347
501.431	32.11
504.323	36.0178
507.216	23.9261
510.109	3.85791
513.001	19.6592
515.894	38.2808
518.787	23.2963
521.679	7.36389
524.572	28.8776
527.465	13.0819
530.358	2.56409
533.25	19.4824
536.143	37.3921
539.036	2.68469
541.928	14.6325
544.821	11.3709
547.714	32.319
550.606	5.59216
553.499	6.25977
556.392	1.06458
559.284	26.561
562.177	19.3081
565.07	23.4334
567.963	30.4822
570.855	17.863
573.748	34.7671
576.641	17.4977
579.533	17.3355
582.426	37.5253
585.319	2.03772
588.212	1.9773
591.104	19.1848
593.997	9.81116
596.89	37.6023
599.782	1.12415
602.675	6.2279
605.568	29.375
608.46	32.7843
611.353	21.3575
614.246	17.021
617.139	23.2577
620.031	25.6578
622.924	17.0884
625.817	26.9232
628.709	4.8844
631.602	13.9512
634.495	16.8916
637.387	4.76611
640.28	28.0992
643.173	3.1947
646.066	25.248
648.958	36.1596
651.851	26.4093
654.744	24.1709
657.636	26.3953
660.529	37.7766
663.422	26.3478
666.314	28.5094
669.207	7.15161
672.1	22.1975
674.992	2.80994
677.885	10.3241
680.778	31.22
683.67	24.7537
686.563	26.7203
689.456	8.47107
692.349	24.0524
695.241	38.9898
698.134	24.1
701.027	34.5117
703.919	10.9807
706.812	0.186646
709.705	38.604
712.597	14.5452
715.49	29.1322
718.383	1.97925
721.276	4.59912
724.168	17.9938
727.061	1.55908
729.954	25.5664
732.846	25.536
735.739	2.60217
738.632	37.1647
741.524	29.3394
744.417	28.9475
747.31	31.8345
750.203	17.8402
753.095	2.48498
755.988	0.426025
758.881	39.9435
761.773	33.1068
764.666	6.43848
767.559	0.904785
770.452	25.7235
773.344	25.2344
776.237	38.04
779.13	12.9185
782.022	13.8552
784.915	39.0338
787.808	4.44641
790.7	11.5171
793.593	13.5498
796.486	37.4633
799.378	4.97131
802.271	35.7505
805.164	31.3686
808.057	37.5626
810.949	29.4918
813.842	0.815186
816.735	36.0404
819.627	20.6345
822.52	34.6639
825.413	6.68408
828.305	16.1942
831.198	34.0308
834.091	13.093
836.984	15.8509
839.876	14.9113
842.769	13.9557
845.662	4.12146
848.554	1.89087
851.447	15.9916
854.34	18.1825
857.232	23.4969
860.125	21.9179
863.018	13.8566
865.91	22.4537
868.803	16.6683
871.696	37.2884
874.589	19.3575
877.481	28.9354
880.374	14.9736
883.267	1.54028
886.159	20.0855
889.052	9.75354
891.945	14.4677
894.837	30.7638
897.73	40.6598
900.623	0.049438
903.516	19.9326
906.408	27.2916
909.301	28.0525
912.194	41.8832
915.086	12.7739
917.979	9.1831
920.872	27.7743
923.764	16.7377
926.657	53.8729
929.55	3.22827
932.442	24.4477
935.335	6.02771
938.228	46.669
941.121	8.44556
944.013	3.28503
946.906	3.75293
949.799	4.82361
952.691	23.5647
955.584	74.2301
958.477	8.5647
961.37	63.0801
964.262	33.0994
967.155	14.5372
970.048	25.7908
972.94	9.22473
975.833	20.9331
978.726	8.34607
981.618	33.4934
984.511	2.59277
987.404	25.9445
990.296	28.9651
993.189	53.7126
996.082	28.5334
998.975	39.2844
1001.87	22.1503
1004.76	36.0392
1007.65	36.7101
1010.54	46.5067
1013.44	8.21289
1016.33	38.0039
1019.22	12.1668
1022.12	23.765
1025.01	55.0118
1027.9	43.8688
1030.79	47.9357
1033.69	27.3452
1036.58	27.8303
1039.47	30.8264
1042.37	36.5205
1045.26	30.8694
1048.15	20.2632
1051.04	20.9004
1053.94	41.8547
1056.83	47.1228
1059.72	16.1768
1062.61	45.3977
1065.51	11.1768
1068.4	39.0081
1071.29	6.85938
1074.18	27.5584
1077.08	10.8669
1079.97	14.3257
1082.86	21.2988
1085.76	51.9385
1088.65	18.8411
1091.54	14.7109
1094.43	7.65576
1097.33	14.2942
1100.22	13.0217
1103.11	29.0796
1106	5.62598
1108.9	36.3862
1111.79	3.48706
1114.68	10.2583
1117.58	12.5137
1120.47	18.5642
1123.36	5.33765
1126.25	1.37817
1129.15	6.29272
1132.04	51.2812
1134.93	31.3618
1137.82	50.6848
1140.72	45.689
1143.61	37.5132
1146.5	55.1726
1149.39	5.53271
1152.29	50.127
1155.18	29.8303
1158.07	18.8433
1160.97	51.384
1163.86	18.4287
1166.75	27.8533
1169.64	24.428
1172.54	24.2803
1175.43	40.0239
1178.32	17.1541
1181.21	40.1306
1184.11	61.842
1187	50.564
1189.89	21.3745
1192.79	17.9605
1195.68	2.46899
1198.57	6.61035
1201.46	16.0259
1204.36	52.6108
1207.25	28.5469
1210.14	29.6201
1213.03	23.9836
1215.93	35.3904
1218.82	31.3125
1221.71	25.832
1224.61	3.84717
1227.5	32.2241
1230.39	32.2371
1233.28	44.5278
1236.18	61.3652
1239.07	65.4192
1241.96	57.637
1244.85	73.1419
1247.75	74.2886
1250.64	40.2778
1253.53	25.5488
1256.42	63.2229
1259.32	60.7468
1262.21	71.2786
1265.1	91.2317
1267.99	15.4839
1270.89	9.41235
