Measurement: Raman, 785 nm, unoriented, Raman Data Processed
Mineral: Dyscrasite
Rruff sample: R061043
Ideal chemistry: Ag_3.2_Sb_0.8_
Locality: Uranium mine no. 21, Pribram, Czech Republic
Source: Michael Scott
Description: Metallic silver-white tarnished striated prismatic single crystals
Raman shift (cm-1)	intensity
143.705	0
146.598	212.667
149.491	406.838
152.383	130.565
155.276	15.2021
158.169	41.8569
161.061	278.187
163.954	700.729
166.847	1113.14
169.739	1279.47
172.632	1292.04
175.525	1281.5
178.418	1346.1
181.31	1338.29
184.203	1317.12
187.096	1383.29
189.988	1272.75
192.881	1339.34
195.774	1367.12
198.667	1263.31
201.559	1288.08
204.452	1211.83
207.345	1148.13
210.237	1079.49
213.13	1077.8
216.023	1134.2
218.915	1108.53
221.808	1090.27
224.701	1127.78
227.594	1159.71
230.486	1250.23
233.379	1154.32
236.272	1235.63
239.164	1219.35
242.057	1228.24
244.95	1166.4
247.842	1134.24
250.735	1147.61
253.628	1063.32
256.521	1097.26
259.413	1063.84
262.306	1011.24
265.199	952.158
268.091	846.169
270.984	798.2
273.877	659.302
276.769	552.126
279.662	577.007
282.555	544.196
285.447	436.198
288.34	185.56
291.233	140.189
294.126	117.211
297.018	82.9829
299.911	102.034
302.804	105.77
305.696	140.717
308.589	11.081
311.482	28.709
314.375	25.0747
317.267	12.3394
320.16	75.8413
323.053	61.1777
325.945	23.9165
328.838	93.3125
331.731	45.4412
334.623	19.3032
337.516	20.3384
340.409	10.2752
343.301	125.998
346.194	136.389
349.087	164.67
351.98	131.696
354.872	101.774
357.765	159.139
360.658	132.664
363.55	128.209
366.443	207.272
369.336	193.205
372.228	285.748
375.121	294.972
378.014	206.07
380.907	218.17
383.799	171.374
386.692	144.065
389.585	168.042
392.477	105.231
395.37	124.765
398.263	195.185
401.156	168.749
404.048	52.4717
406.941	59.6504
409.834	172.321
412.726	91.1001
415.619	77.6877
418.512	45.7581
421.404	139.231
424.297	70.8054
427.19	133.229
430.082	107.177
432.975	51.1675
435.868	96.2717
438.761	135.457
441.653	41.1289
444.546	109.02
447.439	126.407
450.331	109.777
453.224	156.085
456.117	195.341
459.01	183.052
461.902	160.969
464.795	98.7803
467.688	126.244
470.58	82.0454
473.473	104.348
476.366	136.974
479.258	118.537
482.151	130.355
485.044	64.2771
487.937	126.565
490.829	147.107
493.722	142.32
496.615	144.344
499.507	52.9277
502.4	20.7463
505.293	69.3093
508.185	146.033
511.078	11.062
513.971	112.245
516.864	178.231
519.756	167.813
522.649	170.239
525.542	96.2835
528.434	205.983
531.327	1.53003
534.22	22.2659
537.112	100.978
540.005	103.261
542.898	106.921
545.79	56.5752
548.683	113.984
551.576	133.692
554.469	141.323
557.361	173.537
560.254	198.496
563.147	67.7134
566.039	59.3897
568.932	31.6357
571.825	43.6423
574.717	104.176
577.61	124.656
580.503	76.9802
583.396	128.329
586.288	79.3313
589.181	76.9951
592.074	77.3464
594.966	103.883
597.859	100.656
600.752	150.805
603.645	105.115
606.537	95.3435
609.43	99.0156
612.323	117.585
615.215	43.0647
618.108	109.265
621.001	63.1792
623.894	96.3811
626.786	61.417
629.679	56.8523
632.572	142.886
635.464	126.074
638.357	39.657
641.25	131.822
644.142	22.0261
647.035	131.075
649.928	55.331
652.821	158.684
655.713	69.946
658.606	173.137
661.499	93.6218
664.391	39.6624
667.284	87.4697
670.177	66.886
673.069	117.068
675.962	61.7527
678.855	44.2915
681.747	33.4324
684.64	97.429
687.533	37.1289
690.426	39.418
693.318	47.7178
696.211	75.8301
699.104	75.4189
701.996	114.198
704.889	117.586
707.782	13.1565
710.674	90.0903
713.567	99.3677
716.46	164.679
719.353	189.041
722.245	151.865
725.138	119.457
728.031	175.178
730.923	105.841
733.816	152.981
736.709	150.624
739.601	187.559
742.494	214.908
745.387	57.582
748.28	182.955
751.172	204.704
754.065	231.461
756.958	269.106
759.85	201.203
762.743	153.249
765.636	66.729
768.529	67.4846
771.421	222.073
774.314	276.583
777.207	117.288
780.099	213.302
782.992	202.192
785.885	274.571
788.777	185.964
791.67	221.415
794.563	200.803
797.456	73.6021
800.348	1.83154
803.241	170.738
806.134	106.007
809.026	232.859
811.919	219.043
814.812	248.585
817.704	171.11
820.597	188.984
823.49	199.294
826.383	100.264
829.275	137.187
832.168	195.498
835.061	19.4319
837.953	100.213
840.846	146.326
843.739	108.742
846.631	89.1284
849.524	82.9329
852.417	118.97
855.309	24.9968
858.202	58.8643
861.095	58.1848
863.988	93.7781
866.88	68.1724
869.773	36.394
872.666	64.3227
875.558	168.125
878.451	25.3433
881.344	74.1248
884.236	78.7407
887.129	4.17505
890.022	144.603
892.915	74.0664
895.807	72.8687
898.7	92.0823
901.593	65.7891
904.485	75.7693
907.378	95.302
910.271	115.623
913.164	187.697
916.056	87.0747
918.949	54.5637
921.842	67.75
924.734	95.0669
927.627	44.803
930.52	113.877
933.413	133.639
936.305	113.337
939.198	129.31
942.091	204.537
944.983	94.8118
947.876	110.72
950.769	223.124
953.661	142.433
956.554	140.56
959.447	237.18
962.34	81.4473
965.232	39.5857
968.125	234.039
971.018	206.353
973.91	159.008
976.803	103.109
979.696	201.58
982.588	198.54
985.481	155.67
988.374	48.419
991.266	75.9561
994.159	41.9665
997.052	197.489
999.945	251.575
1002.84	187.283
1005.73	174.647
1008.62	142.06
1011.51	140.31
1014.41	238.434
1017.3	179.175
1020.19	9.77734
1023.09	73.4812
1025.98	60.5137
1028.87	76.2058
1031.76	183.394
1034.66	142.09
1037.55	148.112
1040.44	149.112
1043.34	194.598
1046.23	100.128
1049.12	105.168
1052.01	120.131
1054.91	50.6211
1057.8	55.6538
1060.69	145.36
1063.58	23.5962
1066.48	130.031
1069.37	89.5071
1072.26	119.173
1075.15	90.1311
1078.05	91.7161
1080.94	88.7144
1083.83	91.1006
1086.73	63.3533
1089.62	47.2808
1092.51	84.8621
1095.4	80.4595
1098.3	6.43433
1101.19	78.5928
1104.08	80.8577
1106.97	94.7214
1109.87	80.5173
1112.76	102.177
1115.65	98.5435
1118.55	46.8855
1121.44	129.69
1124.33	190.311
1127.22	90.4001
1130.12	117.549
1133.01	31.3735
1135.9	80.8728
1138.79	118.008
1141.69	129.028
1144.58	1.28076
1147.47	193.442
1150.37	77.9856
1153.26	141.277
1156.15	146.569
1159.04	113.02
1161.94	149.109
1164.83	119.707
1167.72	169.934
1170.61	183.422
1173.51	234.496
1176.4	142.414
1179.29	96.6997
1182.18	194.932
1185.08	229.567
1187.97	149.665
1190.86	241.424
1193.76	163.513
1196.65	249.981
1199.54	95.8035
1202.43	31.2085
1205.33	80.4307
1208.22	164.938
1211.11	247.55
1214	119.781
1216.9	200.794
1219.79	131.166
1222.68	261.434
1225.58	178.735
1228.47	254.913
1231.36	169.838
1234.25	99.0388
1237.15	7.6084
1240.04	4.33911
1242.93	242.181
1245.82	185.384
1248.72	231.846
1251.61	107.227
1254.5	128.601
1257.39	153.89
1260.29	116.661
1263.18	36.804
1266.07	73.1526
1268.97	59.7231
1271.86	0
