Measurement: Raman, 785 nm, unoriented, Raman Data Processed
Mineral: Ecdemite
Rruff sample: R060738
Ideal chemistry: Pb^2+^_6_As^3+^_2_O_7_Cl_4_
Locality: Laurium, Greece
Source: Michael Scott
Description: Tan colored spherical aggregates
Raman shift (cm-1)	intensity
160.097	0
162.99	86.111
165.883	169.304
168.775	239.766
171.668	272.78
174.561	317.259
177.454	324.746
180.346	262.975
183.239	340.696
186.132	319.917
189.024	401.37
191.917	358.017
194.81	355.507
197.702	376.086
200.595	357.996
203.488	283.411
206.381	257.874
209.273	249.696
212.166	189.415
215.059	254.406
217.951	267.691
220.844	255.912
223.737	259.174
226.629	321.848
229.522	331.706
232.415	326.67
235.307	296.797
238.2	350.795
241.093	390.768
243.986	419.41
246.878	449.098
249.771	450.277
252.664	511.154
255.556	556.367
258.449	583.277
261.342	652.454
264.235	713.773
267.127	697.587
270.02	675.203
272.913	592.425
275.805	430.548
278.698	294.443
281.591	158.812
284.483	55.235
287.376	21.559
290.269	13.288
293.162	11.029
296.054	4.13
298.947	15.385
301.84	60.304
304.732	33.854
307.625	55.999
310.518	35.372
313.41	49.865
316.303	52.086
319.196	11.822
322.089	75.476
324.981	35.501
327.874	30.734
330.767	7.648
333.659	11.006
336.552	22.395
339.445	14.724
342.337	4.126
345.23	2.501
348.123	8.076
351.016	0.272
353.908	3.056
356.801	12.313
359.694	10.272
362.586	6.5
365.479	2.215
368.372	10.142
371.264	7.062
374.157	0.479
377.05	7.273
379.943	9.163
382.835	8.642
385.728	9.647
388.621	24.622
391.513	0.643
394.406	18.539
397.299	0.755
400.191	2.749
403.084	2.845
405.977	0.995
408.87	4.12
411.762	5.668
414.655	34.195
417.548	39.063
420.44	20.619
423.333	27.108
426.226	36.487
429.118	35.93
432.011	21.772
434.904	17.663
437.797	27.658
440.689	30.082
443.582	9.252
446.475	21.652
449.367	33.63
452.26	24.612
455.153	50.528
458.045	29.807
460.938	29.446
463.831	59.848
466.724	38.728
469.616	47.185
472.509	45.707
475.402	44.123
478.294	36.779
481.187	27.944
484.08	10.703
486.972	14.362
489.865	23.67
492.758	14.719
495.651	38.882
498.543	32.798
501.436	39.329
504.329	16.864
507.221	31.923
510.114	30.854
513.007	12.829
515.899	58.68
518.792	10.739
521.685	22.741
524.578	21.511
527.47	17.471
530.363	8.388
533.256	18.276
536.148	14.973
539.041	27.991
541.934	10.536
544.826	30.455
547.719	5.559
550.612	0.469
553.505	17.66
556.397	12.307
559.29	0.511
562.183	1.187
565.075	8.913
567.968	8.136
570.861	6.866
573.753	3.688
576.646	16.461
579.539	8.633
582.432	11.55
585.324	14.759
588.217	7.418
591.11	1.66
594.002	23.252
596.895	17.92
599.788	2.783
602.68	36.745
605.573	28.938
608.466	10.104
611.359	29.214
614.251	18.344
617.144	2.974
620.037	8.434
622.929	17.096
625.822	6.536
628.715	31.54
631.607	11.51
634.5	2.804
637.393	20.262
640.286	58.174
643.178	10.796
646.071	0.097
648.964	8.568
651.856	11.088
654.749	2.264
657.642	14.555
660.534	4.521
663.427	3.43
666.32	46.78
669.213	10.036
672.105	53.13
674.998	32.586
677.891	19.527
680.783	23.848
683.676	38.04
686.569	42.913
689.461	41.815
692.354	3.257
695.247	7.725
698.14	29.766
701.032	26.072
703.925	25.167
706.818	21.033
709.71	27.19
712.603	32.423
715.496	32.327
718.388	54.363
721.281	48.975
724.174	28.866
727.067	37.985
729.959	31.001
732.852	16.814
735.745	2.054
738.637	18.662
741.53	36.018
744.423	5.875
747.315	13.037
750.208	23.56
753.101	22.929
755.994	78.358
758.886	55.183
761.779	15.467
764.672	0.422
767.564	21.172
770.457	1.283
773.35	0.12
776.242	21.365
779.135	30.103
782.028	9.254
784.92	56.465
787.813	17.106
790.706	34.4
793.599	39.371
796.491	46.409
799.384	38.513
802.277	5.614
805.169	10.655
808.062	3.743
810.955	5.922
813.847	14.254
816.74	6.258
819.633	5.709
822.526	2.466
825.418	40.641
828.311	8.662
831.204	43.87
834.096	47.64
836.989	4.569
839.882	29.581
842.774	41.066
845.667	7.145
848.56	2.198
851.453	14.557
854.345	5.113
857.238	24.921
860.131	16.567
863.023	54.635
865.916	4.211
868.809	27.325
871.701	16.863
874.594	0.07
877.487	11.429
880.38	18.249
883.272	11.521
886.165	17.641
889.058	8.456
891.95	46.265
894.843	1.184
897.736	17.616
900.628	11.09
903.521	9.186
906.414	28.967
909.307	24.944
912.199	21.653
915.092	40.724
917.985	26.752
920.877	1.902
923.77	50.532
926.663	17.161
929.555	34.676
932.448	4.988
935.341	10.769
938.234	10.926
941.126	29.457
944.019	35.48
946.912	43.924
949.804	45.945
952.697	26.486
955.59	13.286
958.482	3.459
961.375	21.632
964.268	48.919
967.161	23.721
970.053	35.305
972.946	15.699
975.839	47.869
978.731	10.468
981.624	38.207
984.517	10.95
987.409	30.123
990.302	73.543
993.195	0.51
996.088	21.529
998.98	46.218
1001.87	52.655
1004.77	31.508
1007.66	28.391
1010.55	1.055
1013.44	23.147
1016.34	13.913
1019.23	37.827
1022.12	15.776
1025.02	2.71
1027.91	23.307
1030.8	44.095
1033.69	0.181
1036.59	18.202
1039.48	32.114
1042.37	47.349
1045.26	2.611
1048.16	0.567
1051.05	32.323
1053.94	1.348
1056.83	40.678
1059.73	44.739
1062.62	19.196
1065.51	37.63
1068.4	12.597
1071.3	18.795
1074.19	38.237
1077.08	18.656
1079.98	33.845
1082.87	9.973
1085.76	28.683
1088.65	3.834
1091.55	26.121
1094.44	27.359
1097.33	37.994
1100.22	23.051
1103.12	52.417
1106.01	43.37
1108.9	26.246
1111.8	8.228
1114.69	29.538
1117.58	15.726
1120.47	2.895
1123.37	29.987
1126.26	32.125
1129.15	30.241
1132.05	36.981
1134.94	23.692
1137.83	3.974
1140.72	3.378
1143.62	6.598
1146.51	12.217
1149.4	34.78
1152.29	29.396
1155.19	32.302
1158.08	0.265
1160.97	30.188
1163.86	38.111
1166.76	42.639
1169.65	26.866
1172.54	68.652
1175.43	56.243
1178.33	52.833
1181.22	34.034
1184.11	31.794
1187.01	3.317
1189.9	9.678
1192.79	14.683
1195.68	13.115
1198.58	2.331
1201.47	3.071
1204.36	13.886
1207.26	7.016
1210.15	56.251
1213.04	67.296
1215.93	11.341
1218.83	13.849
1221.72	13.669
1224.61	24.579
1227.5	25.831
1230.4	24.814
1233.29	7.138
1236.18	4.902
1239.07	1.402
1241.97	37.366
1244.86	49.602
1247.75	32.445
1250.64	18.5
1253.54	5.866
1256.43	29.569
1259.32	35.095
1262.22	41.134
