Measurement: Raman, 780 nm, unoriented, Raman Data Processed
Mineral: Effenbergerite
Rruff sample: R120088
Ideal chemistry: BaCu^2+^Si_4_O_10_
Locality: Eastern orebody, Wessels mine, Kalahari manganese field, Cape Province, South Africa
Source: William W Pinch
Description: Blue massive. A piece from the original find.
Raman shift (cm-1)	intensity
186.098	4394.25
188.991	4312.07
191.884	4433.36
194.776	4502.91
197.669	4538.46
200.562	4584.35
203.455	4597.99
206.347	4656.56
209.24	4757.62
212.133	4752.76
215.025	4848.91
217.918	4880.28
220.811	4938.79
223.703	4984.95
226.596	5020.57
229.489	5098.87
232.382	5119.05
235.274	5219.34
238.167	5279.09
241.06	5324.2
243.952	5320.1
246.845	5449.73
249.738	5447.06
252.631	5571.88
255.523	5566.12
258.416	5645
261.309	5717.85
264.201	5783.01
267.094	5894.8
269.987	5895.23
272.879	5942.49
275.772	6030.7
278.665	6114.27
281.558	6196.67
284.45	6281.14
287.343	6250.46
290.236	6396.84
293.128	6446.26
296.021	6552.15
298.914	6630.39
301.806	6660.48
304.699	6749.22
307.592	6800.74
310.485	6923.52
313.377	6968.65
316.27	7005.42
319.163	7107.93
322.055	7176.57
324.948	7287.52
327.841	7320.18
330.733	7365.47
333.626	7487.45
336.519	7570.82
339.411	7669.49
342.304	7741.64
345.197	7834.77
348.09	7922.88
350.982	7977.67
353.875	8098.11
356.768	8166.09
359.66	8230.49
362.553	8303.02
365.446	8419.1
368.339	8486.88
371.231	8547.06
374.124	8644.89
377.017	8807.55
379.909	8877.52
382.802	8966.1
385.695	9071.88
388.587	9112.36
391.48	9264.79
394.373	9364.31
397.265	9443.52
400.158	9587.4
403.051	9585.58
405.944	9716.59
408.836	9763.33
411.729	9979.44
414.622	10043.9
417.514	10099.5
420.407	10217.2
423.3	10427.6
426.192	10422.2
429.085	10557.8
431.978	10721.6
434.871	10815.4
437.763	10888.6
440.656	11093.2
443.549	11180.2
446.441	11193.3
449.334	11394.2
452.227	11460.4
455.12	11611.6
458.012	11694.1
460.905	11857.4
463.798	11991.5
466.69	12086.3
469.583	12287.4
472.476	12241.7
475.368	12449
478.261	12546.4
481.154	12615.4
484.046	12795.8
486.939	12880.4
489.832	13030.6
492.725	13166.6
495.617	13268.4
498.51	13352.7
501.403	13665.2
504.295	13727.5
507.188	13859.2
510.081	13928.8
512.973	14046.7
515.866	14213.5
518.759	14282.2
521.652	14483.2
524.544	14557.6
527.437	14792.5
530.33	14887.1
533.222	15016.8
536.115	15189.3
539.008	15338.6
541.9	15582.8
544.793	15670.5
547.686	15825.1
550.579	15987.1
553.471	16188.8
556.364	16281.9
559.257	16441.7
562.149	16655.8
565.042	16766.3
567.935	16965.5
570.827	17073.6
573.72	17171.1
576.613	17507.5
579.506	17516.6
582.398	17878.6
585.291	17956.5
588.184	18260
591.076	18452.9
593.969	18545.3
596.862	18711.1
599.755	18893.3
602.647	19215.5
605.54	19321.6
608.433	19563.6
611.325	19722.8
614.218	19961.5
617.111	20122.4
620.003	20360.7
622.896	20494.1
625.789	20761.7
628.682	21003.1
631.574	21212.1
634.467	21418.6
637.36	21612.6
640.252	21885.6
643.145	22016
646.038	22273
648.93	22488.4
651.823	22834.4
654.716	22903.8
657.609	23095.1
660.501	23428.3
663.394	23526
666.287	23842.4
669.179	24024.7
672.072	24274.3
674.965	24499.5
677.857	24699.8
680.75	24961.7
683.643	25176.2
686.535	25538.9
689.428	25692.8
692.321	26034.5
695.214	26245.4
698.106	26396.2
700.999	26796.4
703.892	27070.6
706.784	27215.1
709.677	27587.4
712.57	27905.6
715.462	28121.3
718.355	28471.5
721.248	28587.1
724.141	28974
727.033	29119.8
729.926	29485.9
732.819	29953.5
735.711	30199.1
738.604	30363.1
741.497	30652.8
744.389	30960.9
747.282	31264.1
750.175	31663.4
753.068	32132.4
755.96	32356.6
758.853	32628
761.746	32887
764.638	33250.1
767.531	33406.9
770.424	33777.8
773.317	34275
776.209	34478.2
779.102	34983.9
781.995	35305.2
784.887	35623.7
787.78	36021.2
790.673	36293.4
793.565	36640.9
796.458	37114.7
799.351	37386.9
802.244	37738.2
805.136	38111.8
808.029	38604.8
810.922	38929.9
813.814	39272.9
816.707	39877.3
819.6	40014.7
822.492	40532.1
825.385	41039.3
828.278	41334.1
831.17	41710.2
834.063	42104
836.956	42679.8
839.849	43042.4
842.741	43263.7
845.634	43761.8
848.527	44142.4
851.419	44649.6
854.312	44935.4
857.205	45419.2
860.097	45835.9
862.99	46316.4
865.883	46778.8
868.776	47156.5
871.668	47766.2
874.561	48046.6
877.454	48589.9
880.346	49051.3
883.239	49391.8
886.132	49925.4
889.024	50324.5
891.917	50653.5
894.81	51272.9
897.703	51598.6
900.595	52201.2
903.488	52575.8
906.381	53152.6
909.273	53650.2
912.166	54213.2
915.059	54653
917.952	55203.4
920.844	55797.4
923.737	56054.1
926.63	56742.9
929.522	57285.5
932.415	57913.4
935.308	58491.6
938.2	58885.2
941.093	59350.7
943.986	59927.4
946.879	60505
949.771	61202.1
952.664	61907.5
955.557	62391.8
958.449	62851.3
961.342	63434.6
964.235	64002.5
967.127	64701.3
970.02	65267
972.913	65736.4
975.806	66348.6
978.698	66941.4
981.591	67455
984.484	68229
987.376	68937.6
990.269	69666.7
993.162	70211.5
996.054	70965.5
998.947	71436.9
1001.84	72189.4
1004.73	72842.2
1007.62	73396.9
1010.52	74388.7
1013.41	75073.6
1016.3	75431.2
1019.2	76406.2
1022.09	76906.2
1024.98	77805.9
1027.87	78368.4
1030.77	79133.5
1033.66	80059.3
1036.55	80580.8
1039.44	81386.1
1042.34	81826.3
1045.23	82508.2
1048.12	83358
1051.02	84137.9
1053.91	84775.3
1056.8	85535.6
1059.69	86265.2
1062.59	86962.8
1065.48	87932.8
1068.37	88625.2
1071.27	89368.2
1074.16	90250.3
1077.05	91040.8
1079.94	91838.9
1082.84	92470.7
1085.73	93248.6
1088.62	94113.8
1091.51	94717.4
1094.41	95722.3
1097.3	96393.6
1100.19	97061.3
1103.08	97974.4
1105.98	98659.6
1108.87	99625.2
1111.76	100249
1114.65	100993
1117.55	101837
1120.44	102641
1123.33	103806
1126.23	104514
1129.12	105572
1132.01	106419
1134.9	107606
1137.8	108196
1140.69	109344
1143.58	110136
1146.47	110952
1149.37	112294
1152.26	113181
1155.15	114083
1158.05	114871
1160.94	115984
1163.83	117032
1166.72	118276
1169.62	119052
1172.51	120291
1175.4	121360
1178.3	122080
1181.19	123057
1184.08	124200
1186.97	125138
1189.87	126503
1192.76	127230
1195.65	128320
1198.54	129114
1201.44	130339
1204.33	131205
1207.22	132452
1210.11	133601
1213.01	134376
1215.9	135688
1218.79	136249
1221.68	137300
1224.58	138438
1227.47	139500
1230.36	140662
1233.26	141684
1236.15	142914
1239.04	143509
1241.93	144523
1244.83	145703
1247.72	147581
1250.61	147974
1253.51	149503
1256.4	150807
1259.29	152350
1262.18	153605
1265.08	154965
1267.97	156194
1270.86	157883
1273.75	158848
1276.65	160218
1279.54	161739
1282.43	163251
1285.32	164546
