Measurement: Raman, 780 nm, unoriented, Raman Data RAW
Mineral: Effenbergerite
Rruff sample: R150110
Ideal chemistry: BaCu^2+^Si_4_O_10_
Locality: Synthetic
Source: Yan Chen and Shouhua Feng
Description: Blue powder
Raman shift (cm-1)	intensity
90.5957	8444.22
93.9705	9488.83
97.3453	9570.37
100.72	9484.79
104.095	9588.54
107.47	9822.47
110.845	9790.38
114.219	9874.37
117.594	10173.4
120.969	10197
124.344	10394.1
127.719	10670
131.094	10649.6
134.468	10896.4
137.843	10971.3
141.218	11188.7
144.593	11235.5
147.968	11513.1
151.342	11585.7
154.717	11667.7
158.092	11827.8
161.467	12074.1
164.842	12140.6
168.216	12413.1
171.591	12563.5
174.966	12817
178.341	12935.9
181.716	13088.5
185.09	13181.8
188.465	13479.6
191.84	13688.9
195.215	13639.8
198.59	14044.2
201.965	14069.3
205.339	14303.6
208.714	14460.1
212.089	14794.3
215.464	15018.4
218.839	15141.4
222.214	15267.4
225.588	15705.8
228.963	15747.9
232.338	16019.6
235.713	16264.5
239.088	16463.8
242.462	16611.4
245.837	16887
249.212	17217.6
252.587	17430.2
255.962	17710.7
259.336	17772.1
262.711	18099.5
266.086	18353.9
269.461	18625.1
272.836	18786.6
276.211	19165.9
279.585	19435.5
282.96	19665.1
286.335	19813.5
289.71	20117.5
293.085	20378.3
296.459	20670.8
299.834	20996.3
303.209	21455.7
306.584	21668.3
309.959	21845.8
313.334	21957.5
316.708	22479.6
320.083	22847.3
323.458	23044.5
326.833	23398.5
330.207	23774.5
333.582	23893.7
336.957	24267.7
340.332	24680.3
343.707	24918.9
347.082	25260.5
350.456	25756.9
353.831	26055.2
357.206	26278.9
360.581	26722.7
363.956	27095.2
367.33	27309.7
370.705	27890
374.08	28411.5
377.455	28678.4
380.83	28987.1
384.205	29358.2
387.579	29890.2
390.954	30157.2
394.329	30697.5
397.704	30946.7
401.079	31329.9
404.453	31842.8
407.828	32312.6
411.203	32691.3
414.578	33131.2
417.953	33488.3
421.327	33984
424.702	34529
428.077	35093.5
431.452	35622.6
434.827	36090.5
438.202	36469.7
441.576	37071.6
444.951	37395.9
448.326	37929.2
451.701	38484.8
455.076	39163.2
458.45	39688.4
461.825	40280.1
465.2	40655.6
468.575	41227.2
471.95	41912
475.325	42286.4
478.699	42805.7
482.074	43433.3
485.449	43913.1
488.824	44506.1
492.199	45055.5
495.573	45548.4
498.948	46259.7
502.323	46695.9
505.698	47378.6
509.073	48067.9
512.447	48676.4
515.822	49157.8
519.197	49842
522.572	50446
525.947	51088.6
529.322	51604.4
532.696	52278.9
536.071	53092.7
539.446	53689
542.821	54412.6
546.196	55186.2
549.57	55734.2
552.945	56618.9
556.32	57285
559.695	57951.6
563.07	58656.3
566.444	59612.8
569.819	60375.9
573.194	60940
576.569	62085.7
579.944	62698.3
583.319	63439.1
586.693	64186.9
590.068	64970.5
593.443	65826.3
596.818	66764.4
600.193	67565.9
603.567	68515.3
606.942	69199.2
610.317	70152.4
613.692	71002.1
617.067	71976.7
620.442	73057.6
623.816	73845.1
627.191	74795.2
630.566	75778.3
633.941	76774.8
637.316	77798.9
640.69	78636.8
644.065	79683.6
647.44	80500.6
650.815	81668.3
654.19	82460.6
657.564	83853.3
660.939	84948.4
664.314	85956
667.689	87143.2
671.064	87982.5
674.439	89122.2
677.813	90110.9
681.188	91306.1
684.563	92174.6
687.938	93664.6
691.313	94741
694.688	95910.4
698.062	96895.5
701.437	98371.5
704.812	99546.3
708.187	100763
711.562	102552
714.936	103789
718.311	104735
721.686	106210
725.061	107308
728.436	109039
731.81	110503
735.185	111609
738.56	113281
741.935	114852
745.31	115644
748.684	117515
752.059	119027
755.434	120565
758.809	122108
762.184	123156
765.559	124812
768.933	126167
772.308	128215
775.683	130063
779.058	131333
782.433	133330
785.808	134886
789.182	136660
792.557	138338
795.932	140259
799.307	142190
802.682	143786
806.056	145885
809.431	147520
812.806	149031
816.181	151275
819.556	153280
822.93	155448
826.305	157267
829.68	159124
833.055	160993
836.43	162792
839.804	164998
843.179	167203
846.554	169527
849.929	171491
853.304	173566
856.679	175747
860.053	177420
863.428	179553
866.803	182179
870.178	183926
873.553	186471
876.927	188281
880.302	190641
883.677	193025
887.052	195472
890.427	197760
893.802	200355
897.176	202511
900.551	204912
903.926	207553
907.301	210048
910.676	212391
914.05	215049
917.425	217242
920.8	220019
924.175	222744
927.55	225029
930.924	227778
934.299	230508
937.674	233403
941.049	235687
944.424	238561
947.799	241146
951.173	244010
954.548	247138
957.923	250350
961.298	253295
964.673	255972
968.047	258911
971.422	262047
974.797	265042
978.172	267977
981.547	270971
984.922	274242
988.296	277609
991.671	281109
995.046	284188
998.421	288067
1001.8	290965
1005.17	294461
1008.54	298061
1011.92	301487
1015.29	304800
1018.67	308130
1022.04	311588
1025.42	315575
1028.79	318561
1032.17	322655
1035.54	326752
1038.92	330494
1042.29	333590
1045.67	337249
1049.04	341357
1052.42	345029
1055.79	349004
1059.17	352630
1062.54	357135
1065.92	361644
1069.29	364621
1072.67	368791
1076.04	373090
1079.42	376854
1082.79	381180
1086.17	385594
1089.54	389763
1092.92	393168
1096.29	397214
1099.66	401969
1103.04	406359
1106.41	411206
1109.79	416080
1113.16	420102
1116.54	424106
1119.91	428965
1123.29	434134
1126.66	438440
1130.04	444052
1133.41	449080
1136.79	453514
1140.16	459671
1143.54	464435
1146.91	469682
1150.29	475125
1153.66	480129
1157.04	485116
1160.41	490244
1163.79	495972
1167.16	501965
1170.54	507595
1173.91	514017
1177.29	518843
1180.66	525378
1184.04	530576
1187.41	535295
1190.79	541102
1194.16	547408
1197.54	553309
1200.91	559004
1204.28	564759
1207.66	570377
1211.03	575965
1214.41	581542
1217.78	585918
1221.16	591051
1224.53	597434
1227.91	604777
1231.28	611372
1234.66	617514
1238.03	623026
1241.41	628006
1244.78	635005
1248.16	641547
1251.53	648660
1254.91	656576
1258.28	663593
1261.66	670679
1265.03	678159
1268.41	685627
1271.78	692164
1275.16	698477
1278.53	706909
1281.9	714997
