Measurement: Raman, 532 nm, unoriented, Raman Data Processed
Mineral: Enstatite
Rruff sample: R070097
Ideal chemistry: MgSiO_3_
Locality: Concord, Pennsylvania, USA
Source: Michael Scott
Description: Pale brown bladed crystals frozen in matrix
Measured chemistry: (Mg_0.93_Fe_0.07_)_Î£=1_Si_1.00_O_3_
Raman shift (cm-1)	intensity
171.877	0
174.77	108.863
177.663	245.574
180.555	183.002
183.448	279.678
186.341	361.725
189.234	415.963
192.126	601.195
195.019	645.143
197.912	373.99
200.804	380.203
203.697	220.449
206.59	276.023
209.482	278.76
212.375	391.529
215.268	316.734
218.161	325.035
221.053	427.518
223.946	299.873
226.839	202.176
229.731	303.881
232.624	235.014
235.517	233.293
238.41	256.84
241.302	262.498
244.195	203.818
247.088	200.719
249.98	177.297
252.873	137.773
255.766	91.8945
258.658	216.316
261.551	149.055
264.444	125.719
267.337	26.2578
270.229	164.67
273.122	112.795
276.015	56.4473
278.907	155.92
281.8	90.4512
284.693	246.037
287.585	52.2949
290.478	239.566
293.371	87.0293
296.263	38.1797
299.156	132.336
302.049	21.9004
304.942	27.5332
307.834	40.5566
310.727	59.2871
313.62	27.7676
316.512	26.0508
319.405	11.2344
322.298	105
325.19	21.2383
328.083	47.3184
330.976	119.447
333.868	19.3379
336.761	7.02344
339.654	92.1133
342.547	78.3613
345.439	205.723
348.332	104.723
351.225	228.221
354.117	429.69
357.01	375.258
359.903	474.08
362.796	483.139
365.688	351.935
368.581	183.838
371.474	241.916
374.366	102.268
377.259	139.602
380.152	157.322
383.044	67.5371
385.937	129.107
388.83	142.996
391.722	51.1348
394.615	158.365
397.508	77.6699
400.401	118.144
403.293	57.2852
406.186	60.6055
409.079	40.8887
411.971	26.6914
414.864	189.014
417.757	13.9473
420.649	89.3242
423.542	135.56
426.435	174.06
429.327	244.227
432.22	233.527
435.113	235.359
438.006	240.697
440.898	240.873
443.791	196.066
446.684	145.926
449.576	95.2715
452.469	291.904
455.362	212.34
458.255	175.795
461.147	109.998
464.04	186.609
466.933	98.7949
469.825	212.541
472.718	51.793
475.611	141.232
478.503	69.4004
481.396	22.3516
484.289	41.125
487.182	118.438
490.074	57.2344
492.967	153.938
495.86	98.1406
498.752	113.41
501.645	6.625
504.538	128.312
507.43	156.059
510.323	10.25
513.216	187.598
516.109	1.47266
519.001	140.828
521.894	17.4883
524.787	13.5469
527.679	36.0938
530.572	197.371
533.465	102.574
536.357	85.3086
539.25	182.859
542.143	30.5195
545.035	140.012
547.928	8.04688
550.821	1.9375
553.713	52.6211
556.606	51.3594
559.499	43.9141
562.392	168.086
565.284	62.8398
568.177	68.543
571.07	209.852
573.962	147.316
576.855	30.9258
579.748	102.254
582.64	61.6953
585.533	54.0859
588.426	118.121
591.319	26.1172
594.211	101.59
597.104	106.836
599.997	68.7344
602.889	76.1055
605.782	5.95703
608.675	30.4336
611.567	108.602
614.46	109.066
617.353	142.805
620.245	165.746
623.138	208.125
626.031	12.6328
628.924	114.106
631.816	123.133
634.709	172.656
637.602	231.223
640.494	140.582
643.387	294.602
646.28	266.711
649.173	190.59
652.065	215.793
654.958	145.973
657.851	321.438
660.743	271.707
663.636	459.578
666.529	572.644
669.421	605.977
672.314	836.625
675.207	910.375
678.1	776.762
680.992	644.617
683.885	371.094
686.778	222.027
689.67	90.5078
692.563	37.3008
695.456	47.0312
698.348	190.559
701.241	213.242
704.134	162.812
707.027	100.387
709.919	122.66
712.812	14.6094
715.705	61.9531
718.597	3.67188
721.49	89.3398
724.383	88.8984
727.275	162.172
730.168	62.8516
733.061	45.1367
735.953	86.2656
738.846	90.418
741.739	207.656
744.631	147.723
747.524	93.2734
750.417	8.57812
753.31	132.406
756.202	97.668
759.095	26.2109
761.988	24.9961
764.88	28.043
767.773	162.203
770.666	159.234
773.558	124.375
776.451	184.356
779.344	226.234
782.237	215.457
785.129	141.023
788.022	137.262
790.915	223.461
793.807	196.086
796.7	261.637
799.593	183.062
802.486	195.258
805.378	239.582
808.271	175.465
811.164	215.297
814.056	185.727
816.949	288.746
819.842	287.977
822.734	212.148
825.627	287.824
828.52	49.3828
831.413	206.074
834.305	52.918
837.198	197.824
840.091	214.766
842.983	194.379
845.876	148.574
848.769	106.398
851.661	14.457
854.554	180.293
857.447	50.8125
860.34	287.269
863.232	125.578
866.125	109.992
869.018	302.188
871.91	119.488
874.803	125.309
877.696	161.051
880.588	245.887
883.481	55.5508
886.374	232.184
889.266	122.707
892.159	197.027
895.052	193
897.944	217.148
900.837	152.356
903.73	184.519
906.623	309.828
909.515	103.746
912.408	171.793
915.301	95.2695
918.193	156.394
921.086	118.793
923.979	165.176
926.871	79.4766
929.764	94.7773
932.657	84.875
935.55	131.039
938.442	105.488
941.335	56.3672
944.228	28.2734
947.12	149.539
950.013	148.574
952.906	144.789
955.798	267.809
958.691	224.465
961.584	104.664
964.477	109.957
967.369	133.219
970.262	160.062
973.155	22.7578
976.047	65.6406
978.94	99.7695
981.833	178.129
984.726	85.668
987.618	72.918
990.511	211.609
993.404	92.1875
996.296	150.656
999.189	275.094
1002.08	141.793
1004.97	160.57
1007.87	147
1010.76	185.348
1013.65	14.5117
1016.54	31.418
1019.44	28.4883
1022.33	60.4883
1025.22	146.398
1028.12	193.504
1031.01	89.0859
1033.9	133.773
1036.79	42.9453
1039.69	54.625
1042.58	114.875
1045.47	66.543
1048.37	172.738
1051.26	140.059
1054.15	107.457
1057.04	118.973
1059.94	24.0547
1062.83	213.894
1065.72	31.9648
1068.61	7.29297
1071.51	27.1133
1074.4	126.812
1077.29	18.8672
1080.18	212.305
1083.08	255.309
1085.97	150.109
1088.86	131.402
1091.76	206.965
1094.65	176.519
1097.54	98.7969
1100.43	183.551
1103.33	55.6445
1106.22	126.234
1109.11	107.242
1112	64.5
1114.9	22.3984
1117.79	20.6914
1120.68	85.4609
1123.58	159.625
1126.47	103.445
1129.36	273.141
1132.25	196.106
1135.15	133.102
1138.04	97.0625
1140.93	202.949
1143.82	161.031
1146.72	234.184
1149.61	203.777
1152.5	311.066
1155.39	123.856
1158.29	261.117
1161.18	207.957
1164.07	54.5859
1166.96	246.113
1169.86	223.418
1172.75	235.684
1175.64	98.7266
1178.54	47.9414
1181.43	115.977
1184.32	69.7148
1187.21	201.367
1190.11	232.926
1193	292.516
1195.89	107.793
1198.79	236.106
1201.68	272.078
1204.57	120.473
1207.46	117.465
1210.36	181.363
1213.25	6.40625
1216.14	45.793
1219.03	269.144
1221.93	93.6875
1224.82	164.523
1227.71	62.375
1230.61	221.496
1233.5	133.449
1236.39	99.0938
1239.28	179.375
1242.18	31.8906
1245.07	168.164
1247.96	75.4336
1250.85	211.352
1253.75	132.777
1256.64	290.668
1259.53	62.1445
1262.42	379.562
1265.32	265.93
1268.21	212.215
1271.1	240.969
1273.99	127.691
1276.89	163.68
1279.78	229.176
1282.67	44.2344
1285.57	273.613
1288.46	315.195
1291.35	196.469
1294.24	267.09
1297.14	138.379
1300.03	193.066
1302.92	125.031
1305.82	149.445
1308.71	331.711
1311.6	121.305
