Measurement: Raman, 785 nm, unoriented, Raman Data Processed
Mineral: Enstatite
Rruff sample: R070097
Ideal chemistry: MgSiO_3_
Locality: Concord, Pennsylvania, USA
Source: Michael Scott
Description: Pale brown bladed crystals frozen in matrix
Measured chemistry: (Mg_0.93_Fe_0.07_)_Î£=1_Si_1.00_O_3_
Raman shift (cm-1)	intensity
187.36	0
190.253	290.481
193.145	1384.33
196.038	936.031
198.931	433.484
201.823	428.789
204.716	463.992
207.609	11.9844
210.502	217.043
213.394	289.449
216.287	454.852
219.18	584.848
222.072	720.023
224.965	683.402
227.858	491.617
230.75	458.941
233.643	625.535
236.536	760.039
239.429	742.453
242.321	697.348
245.214	627.473
248.107	696.883
250.999	508.664
253.892	510.082
256.785	468.008
259.678	541.938
262.57	454.348
265.463	302.465
268.356	403.668
271.248	340.254
274.141	169.094
277.034	395.805
279.926	381.664
282.819	354.312
285.712	425.297
288.604	555.977
291.497	580.102
294.39	170.586
297.283	176.297
300.175	204.535
303.068	235.098
305.961	316.184
308.853	227.438
311.746	172.004
314.639	51.2188
317.531	37.1953
320.424	46.6094
323.317	303.887
326.21	336.871
329.102	266.898
331.995	588.594
334.888	198.234
337.78	136.258
340.673	87.5156
343.566	234.117
346.459	378.773
349.351	614.859
352.244	882.125
355.137	1111.2
358.029	1473.35
360.922	1734.51
363.815	1469.03
366.707	839.406
369.6	384.055
372.493	499.422
375.385	446
378.278	348.754
381.171	215.969
384.064	36.8281
386.956	123
389.849	15.2891
392.742	229.281
395.634	228.5
398.527	31.1758
401.42	106.301
404.312	20.0703
407.205	14.3203
410.098	10.2031
412.991	55.2695
415.883	85.2578
418.776	243.519
421.669	247.766
424.561	258.797
427.454	188.758
430.347	301.379
433.24	500.949
436.132	112.863
439.025	56.3867
441.918	33.3594
444.81	244.219
447.703	87.0586
450.596	146.281
453.488	118.664
456.381	292.488
459.274	163.191
462.166	383.574
465.059	411.781
467.952	538.594
470.845	323.281
473.737	249.406
476.63	109.254
479.523	229.781
482.415	189.473
485.308	126.586
488.201	143.832
491.094	285.394
493.986	339.852
496.879	181.773
499.772	114.148
502.664	128.898
505.557	275.961
508.45	180.133
511.342	284.766
514.235	247.438
517.128	193.441
520.02	40.9766
522.913	20.4219
525.806	79.9336
528.699	182.422
531.591	49.418
534.484	90.8359
537.377	84.9102
540.269	106.176
543.162	80.8125
546.055	85.2461
548.947	86.6719
551.84	13.1016
554.733	64.8047
557.626	1.14453
560.518	116.703
563.411	15.9141
566.304	156.086
569.196	43.2891
572.089	22.6016
574.982	332.402
577.875	214.445
580.767	174.664
583.66	203.453
586.553	162.406
589.445	134.402
592.338	117.211
595.231	185.93
598.123	86.2969
601.016	192.398
603.909	166.004
606.802	248.652
609.694	112.938
612.587	65.7148
615.48	100.938
618.372	276.383
621.265	201.656
624.158	96.6719
627.05	114.215
629.943	60.6094
632.836	33.375
635.729	47.4805
638.621	13.2812
641.514	73.7891
644.407	41.1602
647.299	91.8125
650.192	162.344
653.085	101.289
655.977	228.094
658.87	287.449
661.763	517.398
664.655	875.531
667.548	1322.09
670.441	2029.11
673.334	3005.48
676.226	3220.53
679.119	2310.09
682.012	1398.67
684.904	796.195
687.797	684.086
690.69	403.898
693.582	279.965
696.475	364.266
699.368	361.898
702.261	320.512
705.153	393.742
708.046	102.648
710.939	275.148
713.831	197.992
716.724	352.891
719.617	360.031
722.51	417.516
725.402	266.551
728.295	176.918
731.188	136.07
734.08	144.168
736.973	210.633
739.866	118.812
742.758	134.141
745.651	119.137
748.544	272.578
751.437	100.402
754.329	255.504
757.222	169.367
760.115	101.039
763.007	18.5742
765.9	41.8594
768.793	161.055
771.685	124.352
774.578	30.4961
777.471	9.55859
780.364	75.1289
783.256	119.57
786.149	53.1094
789.042	276.676
791.934	239.457
794.827	156.328
797.72	182.535
800.612	35.8555
803.505	31.0039
806.398	29.3906
809.29	5.85156
812.183	55.7266
815.076	29.8906
817.969	24.4609
820.861	166.734
823.754	145.566
826.647	85.582
829.539	183.394
832.432	149.535
835.325	274.266
838.217	303.648
841.11	110.644
844.003	287.062
846.896	44.2695
849.788	84.7148
852.681	150.707
855.574	262.168
858.466	177.773
861.359	116.527
864.252	221.562
867.144	189.617
870.037	164.398
872.93	178.156
875.823	94.668
878.715	110.125
881.608	231.93
884.501	122.988
887.393	45.1758
890.286	131.281
893.179	54.875
896.072	115.269
898.964	74.9023
901.857	208.383
904.75	93.875
907.642	95.4883
910.535	94.4727
913.428	92.9141
916.32	3.20703
919.213	37.2422
922.106	23.0977
924.999	139.184
927.891	48.1836
930.784	73.2227
933.677	97.7422
936.569	120.07
939.462	170.828
942.355	94.832
945.247	154.879
948.14	173.109
951.033	77.7656
953.926	146.34
956.818	219.559
959.711	227.562
962.604	140.74
965.496	122.361
968.389	0.544922
971.282	98.2324
974.174	159.707
977.067	47.0449
979.96	196.639
982.852	43.1113
985.745	169.125
988.638	96.1543
991.531	107.584
994.423	25.6602
997.316	178.172
1000.21	193.15
1003.1	141.871
1005.99	157.769
1008.89	140.607
1011.78	237.717
1014.67	10.6914
1017.57	199.039
1020.46	94.7031
1023.35	44.418
1026.24	146.992
1029.14	115.412
1032.03	64.4902
1034.92	107.893
1037.81	44.3301
1040.71	107.539
1043.6	51.4258
1046.49	121.523
1049.38	116.438
1052.28	149.42
1055.17	91.875
1058.06	83.6816
1060.95	222.035
1063.85	220.853
1066.74	79.9746
1069.63	96.9141
1072.53	35.6152
1075.42	161.281
1078.31	70.9551
1081.2	156.031
1084.1	74.7656
1086.99	120.678
1089.88	84.2617
1092.78	53.4766
1095.67	161.34
1098.56	114.519
1101.45	19.1133
1104.35	147.838
1107.24	104.785
1110.13	172.404
1113.02	93.5156
1115.92	191.525
1118.81	140.09
1121.7	121.766
1124.6	134.332
1127.49	155.193
1130.38	12.0039
1133.27	134.152
1136.17	97.6973
1139.06	67.8496
1141.95	200.943
1144.84	116.238
1147.74	173.242
1150.63	22.8184
1153.52	2.04297
1156.41	167.027
1159.31	68.2871
1162.2	152.82
1165.09	3.88086
1167.98	108.227
1170.88	68.8613
1173.77	53.5254
1176.66	110.418
1179.56	97.4844
1182.45	63.4609
1185.34	112.76
1188.23	164.01
1191.13	111.103
1194.02	130.467
1196.91	207.315
1199.81	112.867
1202.7	87.0996
1205.59	141.406
1208.48	205.84
1211.38	196.644
1214.27	194.209
1217.16	141.664
1220.05	178.1
1222.95	101.022
1225.84	98.0312
1228.73	170.182
1231.62	90.1269
1234.52	84.7812
1237.41	42.8652
1240.3	115.658
1243.19	53.7266
