Measurement: Raman, 532 nm, unoriented, Raman Data Processed
Mineral: Erlichmanite
Rruff sample: R070095
Ideal chemistry: Os^2+^(S_2_)^2-^
Locality: placer from Philipp Massif, Kamchatka, Russia
Source: Michael Scott
Description: Silver bleb in black isoferroplatinum nugget, polished and embedded in epoxy
Raman shift (cm-1)	intensity
158.797	0
161.689	93.1484
164.582	189.489
167.475	146.106
170.367	213.852
173.26	117.09
176.153	83.1431
179.045	93.4453
181.938	126.635
184.831	113.632
187.724	85.7019
190.616	62.6977
193.509	17.3689
196.402	81.4758
199.294	65.5999
202.187	91.7788
205.08	199.403
207.972	177.285
210.865	326.385
213.758	312.532
216.65	105.745
219.543	162.789
222.436	280.54
225.329	155.909
228.221	103.381
231.114	92.3413
234.007	93.2522
236.899	180.173
239.792	134.242
242.685	176.609
245.577	97.2598
248.47	35.9062
251.363	13.8269
254.256	14.603
257.148	59.0478
260.041	73.5229
262.934	61.0161
265.826	48.3047
268.719	20.2544
271.612	104.709
274.505	156.072
277.397	160.92
280.29	75.6079
283.183	52.0857
286.075	99.9919
288.968	124.975
291.861	74.1841
294.753	172.716
297.646	175.93
300.539	81.0957
303.432	54.5425
306.324	42.5474
309.217	62.8423
312.11	4.79785
315.002	87.1094
317.895	75.3227
320.788	193.255
323.68	327.739
326.573	424.903
329.466	566.226
332.358	578.056
335.251	367.573
338.144	138.271
341.037	31.855
343.929	42.2647
346.822	16.4575
349.715	28.7212
352.607	52.9663
355.5	19.8755
358.393	85.4717
361.286	71.4692
364.178	48.3633
367.071	86.7812
369.964	133.824
372.856	165.62
375.749	262.28
378.642	232.727
381.534	243.761
384.427	211.898
387.32	285.264
390.212	277.819
393.105	292.914
395.998	300.46
398.891	292.691
401.783	224.419
404.676	165.951
407.569	191.703
410.462	115.588
413.354	139.605
416.247	186.515
419.14	121.041
422.032	268.847
424.925	255.307
427.818	282.274
430.71	257.401
433.603	304.852
436.496	350.738
439.389	387.3
442.281	339.019
445.174	325.319
448.067	384.248
450.959	354.511
453.852	273.035
456.745	173.426
459.637	169.722
462.53	138.213
465.423	132.926
468.315	179.004
471.208	138.692
474.101	133.27
476.994	127.47
479.886	78.5835
482.779	152.648
485.672	56.6738
488.564	50.6206
491.457	76.9805
494.35	38.4993
497.243	12.8586
500.135	38.6069
503.028	55.5559
505.921	3.67285
508.813	37.9612
511.706	17.1257
514.599	17.709
517.491	45.4714
520.384	7.42212
523.277	114.933
526.169	78.3484
529.062	21.2312
531.955	98.3823
534.848	126.108
537.74	38.9443
540.633	99.3447
543.526	117.172
546.418	110.418
549.311	104.062
552.204	32.2515
555.096	40.7178
557.989	14.1489
560.882	74.7954
563.775	56.9912
566.667	40.8665
569.56	74.2463
572.453	37.1453
575.345	51.7375
578.238	60.0562
581.131	151.706
584.024	180.151
586.916	151.186
589.809	132.264
592.702	243.816
595.594	297.191
598.487	375.49
601.38	373.524
604.272	368.817
607.165	268.008
610.058	173.539
612.951	195.508
615.843	170.448
618.736	171.679
621.629	149.287
624.521	226.194
627.414	110.942
630.307	131.014
633.199	132.66
636.092	118.049
638.985	25.1455
641.878	85.8096
644.77	17.845
647.663	24.0102
650.556	21.9514
653.448	102.332
656.341	33.9417
659.234	7.2334
662.126	19.9004
665.019	59.2388
667.912	53.1885
670.804	50.1851
673.697	30.3498
676.59	38.0278
679.483	72.1746
682.375	106.826
685.268	69.0344
688.161	120.081
691.053	10.5771
693.946	62.2759
696.839	27.9697
699.732	42.3206
702.624	82.2368
705.517	82.4871
708.41	70.2117
711.302	4.53589
714.195	72.8889
717.088	0.461182
719.981	104.656
722.873	95.2725
725.766	2.55396
728.659	42.9102
731.551	3.5708
734.444	64.0283
737.337	103.379
740.229	23.7266
743.122	35.4883
746.015	102.518
748.908	102.262
751.8	65.54
754.693	44.1497
757.586	94.7669
760.478	82.813
763.371	104.722
766.264	49.177
769.156	23.7183
772.049	66.5071
774.942	105.29
777.835	18.3198
780.727	86.3838
783.62	16.8428
786.513	63.5125
789.405	116.252
792.298	152.052
795.191	82.0427
798.083	128.773
800.976	224.843
803.869	283.132
806.761	341.913
809.654	314.214
812.547	216.502
815.44	98.491
818.332	107.037
821.225	40.7239
824.118	0.241943
827.01	150.524
829.903	101.795
832.796	92.2151
835.688	117.63
838.581	131.244
841.474	191.435
844.367	30.4917
847.259	19.0122
850.152	104.88
853.045	68.2107
855.937	9.98364
858.83	48.7039
861.723	26.342
864.615	37.8652
867.508	28.6426
870.401	90.9077
873.294	31.064
876.186	74.1013
879.079	59.7266
881.972	1.63721
884.864	17.782
887.757	18.6357
890.65	37.1833
893.543	57.624
896.435	45.2432
899.328	21.0969
902.221	20.0354
905.113	74.5942
908.006	130.45
910.899	49.7429
913.791	6.19385
916.684	68.9219
919.577	69.9146
922.47	113.59
925.362	53.6838
928.255	53.2671
931.148	110.964
934.04	87.9343
936.933	117.799
939.826	59.5488
942.718	45.8083
945.611	54.4045
948.504	94.9604
951.396	118.021
954.289	125.064
957.182	109.342
960.075	230.573
962.967	119.734
965.86	162.632
968.753	147.457
971.645	141.914
974.538	156.659
977.431	119.793
980.323	113.619
983.216	77.8711
986.109	104.213
989.002	113.861
991.894	34.1865
994.787	127.671
997.68	90.7964
1000.57	28.9136
1003.47	94.3897
1006.36	30.583
1009.25	61.1616
1012.14	3.34277
1015.04	140.616
1017.93	87.9062
1020.82	7.22461
1023.71	47.0034
1026.61	73.8232
1029.5	66.6929
1032.39	44.21
1035.29	79.3926
1038.18	68.1489
1041.07	12.4741
1043.96	51.9194
1046.86	18.648
1049.75	66.541
1052.64	56.5562
1055.53	63.1846
1058.43	146.832
1061.32	153.176
1064.21	64.2485
1067.1	106.992
1070	38.124
1072.89	85.9624
1075.78	25.1499
1078.67	52.5732
1081.57	16.397
1084.46	31.9365
1087.35	99.5264
1090.25	24.2739
1093.14	50.2832
1096.03	96.2197
1098.92	97.3374
1101.82	91.1846
1104.71	22.8779
1107.6	108.581
1110.49	76.7588
1113.39	93.2183
1116.28	165.596
1119.17	147.579
1122.07	77.5015
1124.96	87.0269
1127.85	24.1719
1130.74	101.029
1133.64	109.805
1136.53	14.269
1139.42	27.1792
1142.32	42.7588
1145.21	77.0806
1148.1	69.7324
1150.99	86.5312
1153.89	76.0322
1156.78	87.4097
1159.67	97.9453
1162.56	78.2339
1165.46	61.6065
1168.35	58.8125
1171.24	60.7202
1174.13	101.57
1177.03	52.5376
1179.92	91.6318
1182.81	49.2715
1185.7	94.8735
1188.6	58.1333
1191.49	82.9741
1194.38	40.9824
1197.28	102.685
1200.17	32.0928
1203.06	58.2358
1205.95	80.4019
1208.85	58.481
1211.74	79.3032
1214.63	79.0596
1217.53	27.3892
1220.42	74.0269
1223.31	144.659
1226.2	144.216
1229.1	162.379
1231.99	92.3159
1234.88	49.52
1237.77	57.0132
1240.67	65.5269
1243.56	114.981
1246.45	33.2227
1249.35	52.2632
1252.24	95.6831
1255.13	21.1226
1258.02	123.176
1260.92	89.6133
1263.81	55.5688
1266.7	72.4116
1269.59	33.1392
1272.49	106.479
1275.38	106.906
1278.27	98.812
1281.16	116.373
1284.06	49.1304
1286.95	44.9048
1289.84	20.396
1292.73	26.2109
1295.63	51.0112
1298.52	42.7695
1301.41	3.48926
