Measurement: Raman, 785 nm, unoriented, Raman Data Processed
Mineral: Erlichmanite
Rruff sample: R070095
Ideal chemistry: Os^2+^(S_2_)^2-^
Locality: placer from Philipp Massif, Kamchatka, Russia
Source: Michael Scott
Description: Silver bleb in black isoferroplatinum nugget, polished and embedded in epoxy
Raman shift (cm-1)	intensity
195.55	0
198.443	89.8943
201.336	11.9441
204.229	72.6194
207.121	36.5428
210.014	55.0278
212.907	123.56
215.799	173.438
218.692	61.2878
221.585	131.952
224.477	191.055
227.37	137.364
230.263	99.7742
233.156	56.2875
236.048	39.6255
238.941	44.3135
241.834	72.6395
244.726	17.5658
247.619	19.2422
250.512	36.6883
253.405	41.0656
256.297	75.946
259.19	60.2721
262.083	141.391
264.975	138.789
267.868	111.582
270.761	94.2385
273.653	97.9983
276.546	120.317
279.439	107.113
282.332	109.711
285.224	105.764
288.117	78.4327
291.01	96.9523
293.902	142.627
296.795	81.7571
299.688	105.005
302.58	130.308
305.473	116.686
308.366	98.1325
311.259	69.9958
314.151	97.2536
317.044	57.9075
319.937	85.9318
322.829	64.4995
325.722	70.0087
328.615	92.8547
331.507	15.1102
334.4	66.7034
337.293	92.9697
340.185	49.6836
343.078	70.2516
345.971	90.4746
348.863	67.6193
351.756	76.2059
354.649	67.6122
357.542	19.5579
360.434	41.696
363.327	34.6694
366.22	30.7643
369.112	53.2531
372.005	55.9622
374.898	41.3874
377.791	50.9812
380.683	26.0897
383.576	11.8725
386.469	14.3359
389.361	46.9617
392.254	62.7927
395.147	67.8227
398.039	27.5156
400.932	24.8498
403.825	37.9561
406.717	27.1342
409.61	31.9745
412.503	3.26187
415.396	10.3983
418.288	22.3902
421.181	15.0124
424.074	37.9353
426.966	32.2955
429.859	43.8681
432.752	17.4921
435.644	47.9493
438.537	32.3306
441.43	26.2545
444.322	18.5406
447.215	22.6332
450.108	54.6816
453.001	57.3137
455.893	53.0836
458.786	23.6957
461.679	15.5184
464.571	63.7669
467.464	39.5996
470.357	92.3864
473.25	31.9744
476.142	32.9678
479.035	33.6995
481.928	40.0647
484.82	50.4149
487.713	34.2063
490.606	24.8033
493.498	11.2444
496.391	17.1368
499.284	41.1558
502.176	28.9271
505.069	3.53246
507.962	40.0181
510.855	33.7702
513.747	31.7782
516.64	5.75064
519.533	35.424
522.425	64.3415
525.318	15.569
528.211	35.8546
531.104	62.9577
533.996	45.3215
536.889	19.6952
539.782	26.2706
542.674	29.2982
545.567	40.3436
548.46	32.0956
551.352	30.8888
554.245	18.2537
557.138	32.3416
560.03	57.0286
562.923	47.7853
565.816	18.3449
568.709	32.601
571.601	3.63994
574.494	33.5128
577.387	48.4153
580.279	79.435
583.172	26.6942
586.065	19.7854
588.957	22.123
591.85	56.6526
594.743	52.4165
597.636	1.32092
600.528	19.8641
603.421	92.9644
606.314	21.794
609.206	11.6799
612.099	28.5314
614.992	21.3633
617.885	14.5146
620.777	48.731
623.67	20.2748
626.563	24.821
629.455	52.3864
632.348	47.6461
635.241	14.0514
638.133	54.3491
641.026	41.0502
643.919	19.4497
646.811	4.66458
649.704	35.745
652.597	28.8373
655.49	16.3796
658.382	12.1613
661.275	33.9106
664.168	53.9034
667.06	62.0584
669.953	66.8539
672.846	19.3226
675.738	10.3375
678.631	50.3219
681.524	56.623
684.417	49.5536
687.309	25.6594
690.202	36.6955
693.095	50.5431
695.987	46.1949
698.88	68.1595
701.773	63.2081
704.665	53.9849
707.558	43.5348
710.451	21.699
713.343	33.467
716.236	58.9275
719.129	34.0409
722.021	7.65309
724.914	31.4774
727.807	49.5649
730.7	66.8839
733.592	31.4409
736.485	16.6432
739.378	46.4766
742.27	69.0486
745.163	48.831
748.056	30.2764
750.948	59.6899
753.841	19.9082
756.734	78.9794
759.627	64.8686
762.519	21.8351
765.412	141.521
768.305	35.2126
771.197	54.1379
774.09	70.2738
776.983	0.372162
779.875	36.6617
782.768	47.9497
785.661	40.7577
788.554	22.7881
791.446	27.1343
794.339	67.6173
797.232	98.7118
800.124	47.9725
803.017	58.8056
805.91	32.7996
808.803	87.6028
811.695	41.717
814.588	9.25887
817.481	58.365
820.373	38.4546
823.266	30.2427
826.159	36.0127
829.051	49.8879
831.944	66.8902
834.837	8.07184
837.73	1.27219
840.622	58.8962
843.515	50.8698
846.408	14.0095
849.3	37.6647
852.193	31.5632
855.086	32.9605
857.978	29.3903
860.871	43.8165
863.764	29.7749
866.657	8.20541
869.549	38.2142
872.442	13.6425
875.335	44.9738
878.227	48.8964
881.12	42.6424
884.013	70.1653
886.905	2.25177
889.798	30.2399
892.691	10.812
895.583	8.64281
898.476	22.573
901.369	33.3926
904.261	31.9313
907.154	58.1226
910.047	95.2855
912.94	53.2959
915.832	36.2667
918.725	68.337
921.618	46.031
924.51	59.1214
927.403	41.4343
930.296	20.6826
933.188	25.6542
936.081	44.3834
938.974	35.1413
941.867	3.71706
944.759	32.9929
947.652	43.3325
950.545	21.9674
953.437	35.6785
956.33	31.8569
959.223	10.7339
962.115	47.4691
965.008	39.4304
967.901	17.9015
970.794	47.1299
973.686	32.7774
976.579	24.3325
979.472	44.0317
982.364	6.68877
985.257	7.72632
988.15	39.107
991.043	16.3299
993.935	18.0315
996.828	5.17313
999.721	33.7191
1002.61	51.2644
1005.51	27.4333
1008.4	24.3441
1011.29	39.8666
1014.18	43.001
1017.08	34.1391
1019.97	74.9335
1022.86	35.85
1025.76	17.3279
1028.65	15.06
1031.54	62.0027
1034.43	62.5298
1037.33	45.8304
1040.22	22.2847
1043.11	11.6482
1046	40.6634
1048.9	19.2286
1051.79	38.1315
1054.68	68.3041
1057.58	67.6081
1060.47	36.0866
1063.36	39.0247
1066.25	42.5521
1069.14	72.7926
1072.04	1.23029
1074.93	14.6241
1077.82	24.1429
1080.72	41.8461
1083.61	51.2444
1086.5	34.8012
1089.39	27.3826
1092.29	57.2982
1095.18	9.48154
1098.07	25.0268
1100.96	56.5121
1103.86	57.7032
1106.75	10.27
1109.64	25.2455
1112.54	54.2473
1115.43	8.48221
1118.32	29.1669
1121.21	72.5813
1124.11	36.6547
1127	8.20288
1129.89	30.513
1132.79	53.6309
1135.68	58.793
1138.57	41.4392
1141.46	22.0905
1144.36	50.7571
1147.25	28.8435
1150.14	11.7125
1153.03	58.8958
1155.93	44.0721
1158.82	72.1888
1161.71	20.5218
1164.6	9.94784
1167.5	56.1575
1170.39	62.5923
1173.28	57.1138
1176.17	89.4172
1179.07	5.24381
1181.96	46.9821
1184.85	19.7133
1187.75	18.4044
1190.64	54.2204
1193.53	32.2703
1196.42	14.0241
1199.32	32.1168
1202.21	35.9727
1205.1	35.5436
1207.99	23.7165
1210.89	54.6916
1213.78	26.0474
1216.67	57.1375
1219.57	26.7704
1222.46	44.7786
1225.35	16.4537
1228.24	58.9774
1231.14	21.416
1234.03	69.7679
1236.92	1.40417
1239.82	3.69922
1242.71	39.4639
1245.6	61.9421
1248.49	12.07
1251.38	34.7549
1254.28	28.9716
1257.17	68.5132
1260.06	20.8623
1262.96	40.4198
1265.85	19.035
1268.74	89.1802
1271.63	22.6663
1274.53	20.7728
