Measurement: Raman, 780 nm, unoriented, Raman Data Processed
Mineral: Eucairite
Rruff sample: R060639
Ideal chemistry: CuAgSe
Locality: Mina Santa Brigida, Sierra de Famatina, La Rioja, Argentina
Source: Michael Scott
Description: Black metallic coarsely crystalline massive
Measured chemistry: Cu_1.00_Ag_1.00_Se_1.00_
Raman shift (cm-1)	intensity
94.4526	0
97.8274	2.33563
101.202	1.77606
104.577	3.26874
107.952	18.3581
111.327	1.25763
114.701	2.6153
118.076	4.20483
121.451	3.09119
124.826	16.044
128.201	5.56513
131.576	9.56665
134.95	0.968262
138.325	5.30124
141.7	6.84384
145.075	0.205444
148.45	0.374542
151.825	2.09351
155.199	6.20003
158.574	11.1213
161.949	12.6699
165.324	14.1365
168.698	16.9873
172.073	17.2927
175.448	16.0346
178.823	16.7907
182.198	15.662
185.573	15.1224
188.947	15.1687
192.322	11.584
195.697	13.3042
199.072	12.1378
202.447	13.5229
205.821	11.6886
209.196	11.3487
212.571	9.99083
215.946	10.7017
219.321	9.90689
222.696	9.40617
226.07	10.3718
229.445	10.4052
232.82	9.95598
236.195	10.5781
239.57	12.4847
242.945	11.7302
246.319	10.5044
249.694	10.2008
253.069	8.08481
256.444	7.64905
259.818	7.41834
263.193	6.25822
266.568	4.4831
269.943	3.02935
273.318	1.31723
276.693	0.26561
280.067	0.554329
283.442	0.126617
286.817	0.183617
290.192	0.261429
293.567	0.187584
296.942	0.711014
300.316	0.277534
303.691	0.807205
307.066	0.36718
310.441	0.188332
313.816	0.337151
317.19	0.636665
320.565	1.55815
323.94	1.895
327.315	0.350777
330.69	0.026581
334.065	1.05274
337.439	0.032898
340.814	0.2342
344.189	1.10547
347.564	0.988831
350.938	1.17443
354.313	0.241158
357.688	0.906937
361.063	1.71403
364.438	1.95187
367.813	0.952881
371.187	1.30609
374.562	1.0164
377.937	0.225487
381.312	1.67175
384.687	0.94146
388.062	0.609322
391.436	0.477539
394.811	1.47256
398.186	0.897522
401.561	0.858269
404.935	0.376137
408.31	0.21769
411.685	0.604759
415.06	0.489967
418.435	0.61776
421.81	0.723656
425.184	0.912483
428.559	2.17017
431.934	1.64655
435.309	1.64666
438.684	1.60178
442.058	1.53476
445.433	1.32263
448.808	1.21291
452.183	0.878075
455.558	1.43375
458.933	2.16371
462.307	1.66738
465.682	1.85589
469.057	2.32037
472.432	1.8764
475.807	1.83269
479.182	1.90279
482.556	1.76279
485.931	1.8595
489.306	2.0178
492.681	2.36188
496.055	2.24939
499.43	1.45631
502.805	2.53513
506.18	1.83842
509.555	0.450943
512.93	2.13392
516.304	1.44358
519.679	0.677612
523.054	0.379333
526.429	0.182693
529.804	1.12801
533.178	0.604286
536.553	0.273804
539.928	0.682755
543.303	0.030968
546.678	0.307335
550.053	1.04341
553.427	0.914452
556.802	1.4577
560.177	0.63623
563.552	1.16776
566.927	1.13069
570.302	0.717834
573.676	0.798302
577.051	1.1283
580.426	1.5048
583.801	0.977928
587.176	0.632202
590.55	0.430176
593.925	0.420395
597.3	0.593384
600.675	1.29645
604.05	1.15726
607.424	1.02588
610.799	1.10735
614.174	1.3108
617.549	0.8116
620.924	1.05485
624.298	0.689102
627.673	0.539154
631.048	0.093231
634.423	0.241112
637.798	1.60468
641.173	1.13851
644.547	1.20475
647.922	1.29919
651.297	1.44823
654.672	1.63155
658.047	1.63608
661.421	0.84613
664.796	2.06774
668.171	1.89263
671.546	0.816559
674.921	0.617149
678.295	1.64667
681.67	2.22064
685.045	0.542351
688.42	0.960983
691.795	0.464661
695.17	0.192375
698.544	0.34787
701.919	0.751144
705.294	0.210808
708.669	0.505623
712.044	0.29377
715.418	1.0451
718.793	0.08049
722.168	0.01564
725.543	0.109962
728.918	0.536972
732.293	0.62059
735.667	0.691277
739.042	0.47757
742.417	0.643303
745.792	0.369682
749.167	0.625519
752.541	0.967949
755.916	0.899536
759.291	0.250084
762.666	0.818558
766.041	0.544777
769.415	0.198997
772.79	1.24647
776.165	1.67487
779.54	0.961777
782.915	1.54214
786.29	2.00037
789.664	2.19272
793.039	2.57832
796.414	2.22024
799.789	2.10754
803.164	2.72933
806.538	3.53065
809.913	3.40255
813.288	3.52148
816.663	3.19729
820.038	3.23085
823.413	3.57165
826.787	4.43388
830.162	4.6676
833.537	4.99986
836.912	5.436
840.287	4.85201
843.661	5.19515
847.036	6.84013
850.411	6.60284
853.786	6.61228
857.161	5.54022
860.535	5.29496
863.91	6.11493
867.285	6.37043
870.66	5.4161
874.035	5.22064
877.409	4.93599
880.784	5.21853
884.159	3.82231
887.534	3.37545
890.909	2.82613
894.284	2.82949
897.658	1.63734
901.033	1.77572
904.408	0.645252
907.783	1.18441
911.158	0.012524
914.533	0.499035
917.907	0.412033
921.282	0.076866
924.657	0.396362
928.032	0.046005
931.407	0.481129
934.781	0.220901
938.156	0.982639
941.531	0.147285
944.906	0.613857
948.281	1.17958
951.655	0.514698
955.03	1.01512
958.405	1.43898
961.78	0.197227
965.155	0.213127
968.529	0.746437
971.904	1.66707
975.279	0.376278
978.654	0.759693
982.029	0.350624
985.404	0.194351
988.778	1.00354
992.153	0.16888
995.528	1.08821
998.903	1.45138
1002.28	1.1131
1005.65	1.08945
1009.03	1.11542
1012.4	1.19703
1015.78	1.08368
1019.15	2.39434
1022.53	1.43406
1025.9	0.860641
1029.28	1.2491
1032.65	1.7673
1036.03	1.51699
1039.4	2.16507
1042.78	2.45097
1046.15	1.67884
1049.53	1.71022
1052.9	0.382076
1056.28	2.30321
1059.65	1.38566
1063.02	0.510296
1066.4	2.12785
1069.77	1.04049
1073.15	0.785095
1076.52	0.601799
1079.9	0.349503
1083.27	0.56321
1086.65	0.643845
1090.02	0.993103
1093.4	0.073494
1096.77	1.01342
1100.15	0.465988
1103.52	0.256031
1106.9	0.028076
1110.27	0.000149
1113.65	0.650692
1117.02	0.254299
1120.4	0.141819
1123.77	0.830509
1127.15	0.133045
1130.52	0.917294
1133.9	0.723537
1137.27	1.66317
1140.64	0.510384
1144.02	0.520283
1147.39	0.003052
1150.77	1.46041
1154.14	2.23365
1157.52	1.18001
1160.89	0.797676
1164.27	0.273563
1167.64	1.14822
1171.02	2.39804
1174.39	0.865604
1177.77	0.006386
1181.14	0.957581
1184.52	0.602791
1187.89	1.12216
1191.27	1.27083
1194.64	1.38383
1198.02	1.20938
1201.39	1.42305
1204.77	1.18345
1208.14	1.22498
1211.52	0.791355
1214.89	1.60611
1218.27	1.14021
1221.64	1.07317
1225.02	1.02716
1228.39	0.657219
1231.77	0.832722
1235.14	0.630962
1238.52	0.268585
1241.89	0.620178
1245.26	0.353966
1248.64	0.236027
1252.01	0.264458
1255.39	0.799404
1258.76	1.10722
1262.14	1.38015
1265.51	1.2104
1268.89	0.729328
1272.26	0.058289
1275.64	0.019939
1279.01	0.222153
1282.39	0.007938
