Measurement: Raman, 532 nm, unoriented, Raman Data Processed
Mineral: Eucairite
Rruff sample: R060639
Ideal chemistry: CuAgSe
Locality: Mina Santa Brigida, Sierra de Famatina, La Rioja, Argentina
Source: Michael Scott
Description: Black metallic coarsely crystalline massive
Measured chemistry: Cu_1.00_Ag_1.00_Se_1.00_
Raman shift (cm-1)	intensity
111.404	0
114.296	217.885
117.189	389.09
120.082	25.1
122.974	169.1
125.867	835.343
128.76	1578.34
131.652	2250.67
134.545	1281.38
137.438	630.039
140.331	654.044
143.223	1064.73
146.116	1240.76
149.009	1339.32
151.901	1184.11
154.794	1145.43
157.687	1083.8
160.579	1137.75
163.472	1054.88
166.365	1010.91
169.258	953.894
172.15	870.528
175.043	739.751
177.936	627.097
180.828	545.344
183.721	479.48
186.614	403.907
189.507	353.669
192.399	320.991
195.292	286.201
198.185	263.193
201.077	239.71
203.97	180.111
206.863	172.904
209.755	133.285
212.648	108.714
215.541	106.268
218.434	65.08
221.326	51.604
224.219	97.26
227.112	53.152
230.004	43.373
232.897	30.951
235.79	19.608
238.682	4.923
241.575	10.046
244.468	8.592
247.361	8.278
250.253	10.238
253.146	7.051
256.039	19.078
258.931	3.044
261.824	29.305
264.717	12.388
267.609	4.536
270.502	25.986
273.395	7.652
276.287	14.843
279.18	5.922
282.073	12.818
284.966	26.975
287.858	2.323
290.751	3.971
293.644	12.111
296.536	22.944
299.429	29.574
302.322	46.839
305.214	49.987
308.107	34.257
311	59.412
313.892	36.514
316.785	10.658
319.678	33.975
322.571	61.155
325.463	75.05
328.356	42.283
331.249	59.4
334.141	56.565
337.034	51.852
339.927	34.866
342.819	24.573
345.712	66.433
348.605	32.423
351.498	35.868
354.39	22.153
357.283	19.862
360.176	50.94
363.069	65.068
365.961	47.562
368.854	32.836
371.747	24.473
374.639	26.705
377.532	43.955
380.425	30.464
383.317	35.552
386.21	32.377
389.103	56.508
391.996	21.432
394.888	40.05
397.781	16.124
400.674	63.816
403.566	44.476
406.459	10.898
409.352	15.493
412.244	1.968
415.137	17.74
418.03	21.201
420.922	26.676
423.815	38.077
426.708	30.348
429.601	12.608
432.493	29.469
435.386	33.729
438.279	2.91
441.171	36.173
444.064	39.849
446.957	42.839
449.849	17.012
452.742	25.27
455.635	11.284
458.527	6.261
461.42	26.259
464.313	27.941
467.206	37.142
470.098	10.983
472.991	45.579
475.884	24.258
478.776	12.409
481.669	33.783
484.562	27.91
487.454	31.071
490.347	38.578
493.24	10.145
496.133	5.613
499.025	13.216
501.918	20.134
504.811	17.689
507.703	45.317
510.596	39.311
513.489	36.509
516.381	36
519.274	18.512
522.167	4.12
525.06	26.282
527.952	32.28
530.845	2.631
533.738	36.125
536.63	3.643
539.523	13.04
542.416	31.652
545.308	22.088
548.201	35.191
551.094	35.74
553.987	45.233
556.879	0.336
559.772	36.501
562.665	23.684
565.557	5.227
568.45	6.713
571.343	13.87
574.235	16.327
577.128	23.422
580.021	41.755
582.914	26.254
585.806	27.218
588.699	0.386
591.592	28.727
594.484	23.587
597.377	14.965
600.27	62.771
603.162	28.219
606.055	51.881
608.948	38.291
611.841	19.128
614.733	7.337
617.626	24.086
620.519	49.283
623.411	19.968
626.304	23.608
629.197	56.766
632.089	18.5
634.982	29.969
637.875	20.468
640.768	28.217
643.66	15.428
646.553	40.645
649.446	19.413
652.338	29.651
655.231	23.644
658.124	10.9
661.016	41.424
663.909	16.248
666.802	5.811
669.695	11.373
672.587	44.669
675.48	37.917
678.373	70.134
681.265	30.732
684.158	20.738
687.051	30.944
689.943	31.536
692.836	1.95
695.729	50.582
698.622	34.822
701.514	27.79
704.407	39.637
707.3	21.792
710.192	59.307
713.085	25.522
715.978	36.86
718.87	39.525
721.763	36.986
724.656	35.846
727.549	36.741
730.441	38.694
733.334	36.788
736.227	51.736
739.119	16.343
742.012	13.323
744.905	27.958
747.797	10.489
750.69	59.552
753.583	74.298
756.476	14.798
759.368	28.295
762.261	2.702
765.154	18.672
768.046	45.505
770.939	39.377
773.832	1.957
776.724	23.344
779.617	29.222
782.51	36.672
785.403	1.168
788.295	31.133
791.188	41.849
794.081	55.832
796.973	35.895
799.866	20.382
802.759	25.559
805.652	13.854
808.544	20.651
811.437	58.932
814.33	17.339
817.222	42.32
820.115	47.63
823.008	40.025
825.9	11.132
828.793	38.91
831.686	3.936
834.578	11.808
837.471	35.458
840.364	10.141
843.257	8.086
846.149	42.368
849.042	41.052
851.935	19.432
854.827	24.679
857.72	0.987
860.613	31.001
863.505	9.308
866.398	47.708
869.291	22.013
872.184	30.458
875.076	51.993
877.969	24.348
880.862	6.613
883.754	14.832
886.647	26.922
889.54	12.531
892.432	19.627
895.325	35.841
898.218	39.336
901.111	55.175
904.003	15.915
906.896	36.62
909.789	34.074
912.681	56.32
915.574	32.835
918.467	41.28
921.359	30.96
924.252	28.717
927.145	28.871
930.038	23.516
932.93	41.892
935.823	30.501
938.716	5.046
941.608	8.05
944.501	42.983
947.394	29.676
950.286	51.162
953.179	48.847
956.072	21.985
958.965	14.289
961.857	51.225
964.75	32.758
967.643	47.559
970.535	37.603
973.428	19.161
976.321	50.981
979.214	40.661
982.106	20.451
984.999	43.633
987.892	69.671
990.784	11.845
993.677	8.579
996.57	33.223
999.462	68.023
1002.36	34.643
1005.25	54.308
1008.14	24.658
1011.03	1.668
1013.93	32.255
1016.82	36.359
1019.71	13.619
1022.6	5.937
1025.5	26.917
1028.39	26.208
1031.28	32.601
1034.17	25.295
1037.07	88.782
1039.96	32.827
1042.85	14.76
1045.75	6.407
1048.64	56.071
1051.53	6.183
1054.42	24.208
1057.32	45.034
1060.21	61.78
1063.1	56.705
1065.99	31.217
1068.89	18.022
1071.78	12.621
1074.67	22.202
1077.57	40.383
1080.46	15.231
1083.35	21.482
1086.24	5.059
1089.14	36.061
1092.03	21.648
1094.92	58.43
1097.81	38.183
1100.71	53.069
1103.6	50.237
1106.49	26.188
1109.38	31.409
1112.28	9.46
1115.17	16.697
1118.06	5.463
1120.96	14.205
1123.85	31.867
1126.74	64.415
1129.63	39.901
1132.53	25.318
1135.42	34.281
1138.31	47.879
1141.2	27.905
1144.1	12.719
1146.99	56.046
1149.88	22.276
1152.78	27.813
1155.67	12.615
1158.56	5.977
1161.45	3.56
1164.35	22.129
1167.24	7.565
1170.13	21.641
1173.02	52.86
1175.92	40.344
1178.81	41.742
1181.7	6.3
1184.6	5.29
1187.49	19.048
1190.38	25.082
1193.27	39.914
1196.17	34.079
1199.06	30.972
1201.95	59.577
1204.84	18.04
1207.74	36.689
1210.63	31.638
1213.52	1.511
1216.41	12.952
1219.31	28.13
1222.2	16.381
1225.09	6.7
1227.99	20.845
1230.88	29.064
1233.77	18.138
