Measurement: Raman, 780 nm, unoriented, Raman Data Processed
Mineral: Euchroite
Rruff sample: R050579
Ideal chemistry: Cu^2+^_2_As^5+^O_4_(OH)3H_2_O
Locality: Lubietova, Banskobystricky, Slovakia
Source: University of Arizona Mineral Museum
Description: Green prismatic crystal
Measured chemistry: Cu_2.00_((As_0.99_P_0.01_)_Σ=1_O_4_)(OH)·3H_2_O; = gray phase. The dark phase: Cu_2.00_((As_0.96_P_0.04_)_Σ=1_O_4_)(OH)·3H_2_O; light phase: olivenite: Cu_2.00_((As_0.98_P_0.02_)_Σ=1_O_4_)(OH)
Raman shift (cm-1)	intensity
149.919	0
152.812	0.600659
155.705	0.261889
158.597	4.71521
161.49	2.04116
164.383	2.37073
167.276	3.61214
170.168	2.08163
173.061	0.23529
175.954	1.83972
178.846	1.08279
181.739	1.59834
184.632	3.11299
187.524	0.025067
190.417	3.29704
193.31	1.78965
196.203	1.35493
199.095	2.51106
201.988	3.58336
204.881	2.99199
207.773	4.49484
210.666	1.33894
213.559	1.76771
216.451	4.03475
219.344	2.86746
222.237	1.70743
225.13	1.46316
228.022	2.18036
230.915	2.76943
233.808	1.0841
236.7	2.06369
239.593	4.47572
242.486	1.84051
245.378	4.70374
248.271	3.75075
251.164	1.99843
254.056	1.88043
256.949	1.49931
259.842	0.21452
262.735	3.5554
265.627	1.46781
268.52	3.90541
271.413	2.76458
274.305	5.28481
277.198	4.23034
280.091	0.795789
282.983	0.685738
285.876	0.394157
288.769	3.12801
291.662	3.63528
294.554	0.299763
297.447	1.98699
300.34	0.126733
303.232	2.8822
306.125	0.93107
309.018	4.04682
311.911	2.13859
314.803	2.02465
317.696	0.127527
320.589	0.690633
323.481	3.35579
326.374	2.73864
329.267	3.01783
332.159	2.26932
335.052	0.330534
337.945	2.88976
340.837	2.40073
343.73	0.120878
346.623	2.27867
349.516	1.19333
352.408	4.7132
355.301	4.57014
358.194	3.18061
361.086	0.574452
363.979	0.173991
366.872	1.59668
369.764	3.27528
372.657	2.99168
375.55	0.055348
378.442	1.39082
381.335	1.32578
384.228	2.51013
387.121	2.90363
390.013	3.27836
392.906	4.6466
395.799	3.17209
398.691	2.94999
401.584	5.39145
404.477	1.98616
407.37	2.78435
410.262	3.45161
413.155	1.80224
416.048	1.73077
418.94	3.29897
421.833	3.27586
424.726	1.73286
427.618	1.54635
430.511	1.73294
433.404	0.26044
436.296	4.64632
439.189	2.75379
442.082	1.32652
444.975	2.02265
447.867	4.01516
450.76	1.01895
453.653	0.445812
456.545	1.59117
459.438	2.48301
462.331	4.3363
465.224	5.18425
468.116	1.44694
471.009	2.5796
473.902	3.47196
476.794	0.416442
479.687	2.6667
482.58	0.921303
485.472	2.84572
488.365	2.39287
491.258	4.38107
494.151	1.69569
497.043	3.67421
499.936	3.36191
502.829	1.41919
505.721	2.65376
508.614	4.07831
511.507	2.99761
514.399	1.39097
517.292	2.95778
520.185	1.23588
523.077	1.34976
525.97	5.81053
528.863	2.2766
531.756	4.6417
534.648	3.0987
537.541	0.641942
540.434	3.0908
543.326	0.180836
546.219	3.52084
549.112	1.51648
552.004	2.70116
554.897	2.24459
557.79	2.97589
560.683	1.38202
563.575	1.96825
566.468	1.66732
569.361	1.41084
572.253	0.877973
575.146	2.76447
578.039	1.46054
580.931	1.3122
583.824	3.02397
586.717	3.18836
589.61	3.39125
592.502	2.415
595.395	2.29409
598.288	1.55905
601.18	0.4835
604.073	4.64101
606.966	2.53611
609.858	1.90385
612.751	0.786689
615.644	0.493886
618.537	2.41784
621.429	1.72107
624.322	3.63511
627.215	0.721283
630.107	0.934276
633	1.73933
635.893	3.35438
638.785	0.099151
641.678	1.70138
644.571	1.53609
647.463	2.20859
650.356	3.81674
653.249	0.179112
656.141	0.875927
659.034	2.00776
661.927	5.09716
664.82	1.27005
667.712	2.27051
670.605	1.71226
673.498	0.96135
676.39	1.43155
679.283	2.98417
682.176	3.41356
685.068	3.18445
687.961	2.66596
690.854	1.77061
693.747	1.73703
696.639	3.53795
699.532	3.42472
702.425	2.14048
705.317	3.74863
708.21	0.111946
711.103	3.78099
713.995	4.82432
716.888	2.13273
719.781	0.607449
722.674	4.34359
725.566	3.55293
728.459	1.67831
731.352	3.36986
734.244	2.27835
737.137	0.999351
740.03	2.53252
742.923	2.95385
745.815	2.15801
748.708	2.89146
751.601	1.85698
754.493	2.14502
757.386	5.14279
760.279	3.65783
763.171	3.12381
766.064	0.274609
768.957	0.660652
771.85	3.01575
774.742	2.90983
777.635	3.97563
780.528	0.311285
783.42	2.2899
786.313	0.620193
789.206	0.704969
792.098	1.13083
794.991	0.98992
797.884	1.52564
800.776	1.25733
803.669	0.447564
806.562	1.23751
809.455	2.83325
812.347	3.12516
815.24	5.70406
818.133	4.39682
821.025	4.33076
823.918	5.42927
826.811	4.7048
829.703	6.3071
832.596	4.94608
835.489	4.92188
838.381	4.57957
841.274	5.21089
844.167	3.75806
847.06	5.26304
849.952	2.71415
852.845	1.16414
855.738	0.479615
858.63	2.70811
861.523	1.55971
864.416	1.97451
867.308	2.95573
870.201	4.10245
873.094	3.86224
875.987	2.53804
878.879	1.76704
881.772	3.40425
884.665	1.72547
887.557	1.53071
890.45	1.4526
893.343	1.22527
896.236	3.66097
899.128	3.1163
902.021	2.25431
904.914	1.46068
907.806	1.63534
910.699	1.06797
913.592	1.15746
916.484	3.5239
919.377	1.25944
922.27	2.15331
925.163	3.42673
928.055	4.24973
930.948	2.24561
933.841	2.12576
936.733	3.48026
939.626	2.27623
942.519	2.52692
945.411	1.85123
948.304	2.52575
951.197	1.48062
954.09	3.09607
956.982	2.9255
959.875	4.1292
962.768	3.5118
965.66	1.00061
968.553	2.15336
971.446	0.581377
974.338	2.39539
977.231	3.59912
980.124	2.98813
983.016	5.72237
985.909	2.10743
988.802	1.83094
991.694	3.22385
994.587	0.705713
997.48	0.016452
1000.37	2.25618
1003.26	3.18696
1006.16	4.38627
1009.05	1.09132
1011.94	3.06065
1014.84	1.87187
1017.73	6.54912
1020.62	0.036766
1023.51	2.98471
1026.41	4.98195
1029.3	1.31361
1032.19	2.21668
1035.09	1.71819
1037.98	3.5395
1040.87	2.0924
1043.76	4.38127
1046.66	2.68779
1049.55	2.17489
1052.44	2.09716
1055.33	2.92026
1058.23	2.27904
1061.12	3.88081
1064.01	1.55976
1066.9	2.26387
1069.8	0.010351
1072.69	0.942253
1075.58	2.02258
1078.47	1.61507
1081.37	2.98179
1084.26	3.25243
1087.15	2.63739
1090.05	1.15697
1092.94	2.19684
1095.83	0.534581
1098.72	4.54797
1101.62	3.04693
1104.51	2.55625
1107.4	1.88171
1110.3	4.52723
1113.19	2.43656
1116.08	2.51189
1118.97	0.4226
1121.87	2.1258
1124.76	4.04346
1127.65	3.50259
1130.54	1.74202
1133.44	2.37074
1136.33	2.34156
1139.22	0.213191
1142.12	1.62011
1145.01	2.76429
1147.9	0.099957
1150.79	2.93903
1153.69	1.65833
1156.58	0.194288
1159.47	0.630557
1162.36	1.16427
1165.26	2.76998
1168.15	3.39796
1171.04	0.817955
1173.93	2.91322
1176.83	1.36987
1179.72	2.02768
1182.61	2.39028
1185.51	3.18342
1188.4	4.28631
1191.29	1.35558
1194.18	0.955161
1197.08	1.83314
1199.97	1.57582
1202.86	2.96616
1205.75	0.796857
1208.65	1.14602
1211.54	3.64538
1214.43	2.04805
1217.33	2.7562
1220.22	0.231581
1223.11	0.131279
1226	1.52206
1228.9	3.8974
1231.79	2.59303
1234.68	1.25692
1237.57	2.70895
1240.47	2.40554
1243.36	3.91113
1246.25	2.43012
1249.14	1.71449
1252.04	3.68746
1254.93	2.83568
1257.82	1.18728
1260.71	2.63992
1263.61	1.97972
1266.5	2.33096
1269.39	3.17051
1272.29	3.10458
1275.18	5.54276
1278.07	1.66518
1280.96	1.32354
1283.86	0.049532
