Measurement: Raman, 780 nm, unoriented, Raman Data Processed
Mineral: Eurekadumpite
Rruff sample: R100039
Ideal chemistry: (Cu^2+^,Zn^2+^)_16_(Te^4+^O_3_)_2_(As^5+^O_4_)_3_Cl(OH)_18_7H_2_O
Locality: Centennial Eureka mine, Juab County, Utah, USA
Source: Jeff Weissman
Description: Spheres of radiating blue acicular crystals
Raman shift (cm-1)	intensity
91.5332	0
94.908	2.87913
98.2828	2.42017
101.658	0.297792
105.032	0.416542
108.407	1.50733
111.782	0.990491
115.157	0.188321
118.532	0.928246
121.907	2.04865
125.281	1.81462
128.656	0.597073
132.031	0.679969
135.406	1.59423
138.781	2.53543
142.155	1.85045
145.53	0.159211
148.905	1.38882
152.28	1.3705
155.655	1.39362
159.03	0.778679
162.404	1.35743
165.779	1.25449
169.154	2.07259
172.529	0.887251
175.904	1.94708
179.278	0.982523
182.653	1.42027
186.028	0.92792
189.403	0.819031
192.778	1.73433
196.153	2.0781
199.527	1.34306
202.902	0.619779
206.277	1.4771
209.652	1.40252
213.027	2.26101
216.401	1.15582
219.776	1.94695
223.151	1.82452
226.526	1.20445
229.901	1.70653
233.275	2.17478
236.65	1.7633
240.025	1.82425
243.4	2.533
246.775	1.92871
250.15	2.12999
253.524	0.733749
256.899	1.89714
260.274	0.468964
263.649	0.848344
267.024	0.932594
270.399	1.03594
273.773	0.44999
277.148	1.1061
280.523	0.60301
283.898	1.36724
287.273	0.808406
290.647	0.265341
294.022	1.41853
297.397	1.08899
300.772	0.53401
304.147	0.45296
307.522	1.05911
310.896	0.94083
314.271	1.26288
317.646	1.67162
321.021	0.346139
324.396	0.329986
327.77	0.883324
331.145	2.13734
334.52	1.07696
337.895	0.803652
341.27	0.990346
344.644	1.07881
348.019	0.367839
351.394	1.7301
354.769	0.016923
358.144	1.53381
361.519	1.31098
364.893	0.750308
368.268	0.191734
371.643	1.00944
375.018	1.52541
378.393	1.41436
381.767	1.42246
385.142	0.236463
388.517	0.61177
391.892	1.61514
395.267	1.58264
398.642	0.058213
402.016	1.97838
405.391	1.33472
408.766	0.747706
412.141	1.245
415.516	0.373299
418.89	0.738681
422.265	0.05792
425.64	1.49368
429.015	0.586454
432.39	0.956834
435.765	0.924963
439.139	0.354408
442.514	1.23135
445.889	0.781881
449.264	1.81131
452.639	0.133818
456.014	1.60841
459.388	0.140654
462.763	0.20095
466.138	0.818052
469.513	0.199778
472.887	1.50624
476.262	0.064824
479.637	0.855924
483.012	0.688295
486.387	0.145801
489.762	1.45266
493.136	0.506655
496.511	0.25975
499.886	2.35528
503.261	1.58835
506.636	0.665909
510.01	1.00224
513.385	1.65344
516.76	0.898852
520.135	0.341998
523.51	0.009782
526.885	0.786846
530.259	1.25939
533.634	0.438046
537.009	1.12106
540.384	0.06173
543.759	2.07174
547.134	1.02085
550.508	2.31153
553.883	0.694803
557.258	1.57384
560.633	1.31152
564.008	1.8929
567.382	0.823542
570.757	0.561138
574.132	1.30219
577.507	2.1034
580.882	0.962161
584.256	0.399752
587.631	0.534333
591.006	0.042056
594.381	2.09225
597.756	0.549899
601.131	0.241872
604.505	1.3835
607.88	1.2377
611.255	0.273423
614.63	1.17603
618.005	1.17532
621.38	1.2236
624.754	0.844911
628.129	1.36942
631.504	0.739407
634.879	0.53745
638.254	0.460713
641.628	1.62807
645.003	1.16219
648.378	1.83776
651.753	2.07283
655.128	0.024649
658.503	0.99785
661.877	0.486578
665.252	1.06215
668.627	0.104069
672.002	0.45759
675.377	0.739737
678.751	1.45798
682.126	1.23327
685.501	2.02282
688.876	2.14797
692.251	2.60969
695.625	2.5659
699	2.8639
702.375	2.81496
705.75	2.49629
709.125	1.42287
712.5	1.78434
715.874	0.399208
719.249	1.42803
722.624	1.59935
725.999	1.77657
729.374	0.708582
732.749	0.632029
736.123	0.698837
739.498	0.362078
742.873	0.379725
746.248	0.564947
749.623	0.132319
752.997	0.738141
756.372	0.703272
759.747	0.566239
763.122	0.574468
766.497	0.86468
769.871	0.830349
773.246	0.52347
776.621	1.27602
779.996	0.392969
783.371	1.28741
786.745	0.680207
790.12	0.4728
793.495	0.217031
796.87	1.0302
800.245	1.28112
803.62	0.836843
806.994	1.04591
810.369	1.21819
813.744	0.549219
817.119	1.98201
820.494	0.725838
823.869	0.681451
827.243	1.67574
830.618	1.84118
833.993	1.063
837.368	1.46092
840.743	1.54768
844.117	1.72813
847.492	0.836503
850.867	0.822912
854.242	1.65278
857.617	1.43792
860.991	0.727381
864.366	2.52562
867.741	1.85573
871.116	1.45425
874.491	2.23912
877.866	2.63349
881.24	0.792746
884.615	1.81859
887.99	1.62302
891.365	0.451258
894.74	0.721306
898.115	1.45158
901.489	1.23446
904.864	1.21058
908.239	0.441591
911.614	1.10369
914.989	0.395732
918.363	1.56172
921.738	0.214318
925.113	1.8075
928.488	0.389067
931.863	2.12071
935.237	0.405939
938.612	0.426316
941.987	0.080571
945.362	1.46117
948.737	1.84542
952.112	0.226483
955.486	1.43491
958.861	0.623392
962.236	1.14043
965.611	0.987034
968.986	0.708825
972.361	0.775457
975.735	0.443701
979.11	0.430327
982.485	0.842673
985.86	1.33137
989.235	0.992403
992.609	0.08082
995.984	0.251037
999.359	0.592446
1002.73	0.123101
1006.11	0.78088
1009.48	1.42447
1012.86	0.939168
1016.23	0.74451
1019.61	1.04007
1022.98	0.049435
1026.36	0.588871
1029.73	0.815232
1033.11	1.27867
1036.48	0.583896
1039.86	0.994749
1043.23	1.62299
1046.61	1.48409
1049.98	0.576262
1053.36	0.2534
1056.73	1.09335
1060.11	1.4893
1063.48	0.525396
1066.86	0.476303
1070.23	1.03041
1073.61	0.860699
1076.98	1.07531
1080.36	0.6974
1083.73	0.483775
1087.1	0.861623
1090.48	1.06644
1093.85	0.540897
1097.23	1.4441
1100.6	0.420513
1103.98	0.197621
1107.35	1.27819
1110.73	1.08283
1114.1	2.51846
1117.48	0.920654
1120.85	0.983018
1124.23	0.881102
1127.6	2.23807
1130.98	0.749034
1134.35	1.12814
1137.73	1.45253
1141.1	1.26957
1144.48	1.06896
1147.85	0.190637
1151.23	0.70476
1154.6	0.413171
1157.97	1.20584
1161.35	1.15339
1164.72	1.46992
1168.1	0.04056
1171.47	1.15139
1174.85	1.57777
1178.22	0.783589
1181.6	1.18068
1184.97	0.421556
1188.35	0.900113
1191.72	0.823084
1195.1	1.01042
1198.47	0.752951
1201.85	0.947821
1205.22	0.732313
1208.6	0.509601
1211.97	1.20798
1215.35	1.08765
1218.72	1.37124
1222.1	0.662605
1225.47	0.205788
1228.85	1.72108
1232.22	0.344398
1235.6	1.35021
1238.97	1.03161
1242.35	0.269222
1245.72	0.932965
1249.1	0.775477
1252.47	0.53203
1255.85	0.555888
1259.22	0.803287
1262.6	1.88606
1265.97	0.407537
1269.34	0.922357
1272.72	0.883437
1276.09	0.906003
1279.47	1.23172
1282.84	0.042049
