Measurement: Raman, 532 nm, unoriented, Raman Data RAW
Mineral: Euxenite-(Y)
Rruff sample: R070324
Ideal chemistry: (Y^3+^,Ca,Ce^3+^,U^4+^,Th^4+^)(Nb^5+^,Ta^5+^,Ti^4+^)_2_O_6_
Locality: Impilahti Parish, Lake Ladoga region, Russia
Source: James Shigley
Description: Vitreous amorphous dark brown massive
Raman shift (cm-1)	intensity
160.268	3230.3
163.161	3262.61
166.054	3281.8
168.946	3374.39
171.839	3432.73
174.732	3485.57
177.625	3503.92
180.517	3528.03
183.41	3537.87
186.303	3587.68
189.195	3612.08
192.088	3608
194.981	3663.3
197.874	3678.93
200.766	3704.08
203.659	3740.7
206.552	3695.57
209.444	3733.02
212.337	3747.54
215.23	3753.26
218.122	3796.77
221.015	3791.94
223.908	3786.01
226.8	3845.25
229.693	3794.34
232.586	3815.64
235.479	3829.04
238.371	3810.14
241.264	3837.61
244.157	3826.68
247.049	3840.59
249.942	3838.52
252.835	3832.25
255.727	3813.44
258.62	3825.97
261.513	3793.62
264.406	3768.32
267.298	3764.69
270.191	3798.01
273.084	3753.81
275.976	3755.74
278.869	3751.45
281.762	3733.22
284.655	3699.26
287.547	3731.98
290.44	3704.71
293.333	3693.57
296.225	3663.22
299.118	3658.12
302.011	3639.64
304.904	3604.39
307.796	3603.95
310.689	3574.56
313.582	3580.97
316.474	3560.59
319.367	3525.57
322.26	3520.7
325.152	3507.53
328.045	3484.96
330.938	3443.04
333.83	3427.41
336.723	3429.5
339.616	3429.11
342.509	3385.8
345.401	3405.97
348.294	3389.94
351.187	3393.2
354.079	3351.71
356.972	3314.53
359.865	3324.89
362.757	3311.58
365.65	3319.9
368.543	3317.71
371.436	3302.06
374.328	3321.34
377.221	3262.21
380.114	3303.75
383.006	3249.42
385.899	3232.95
388.792	3232.2
391.685	3234.93
394.577	3200.72
397.47	3169.22
400.363	3240.72
403.255	3218.65
406.148	3183.16
409.041	3201.39
411.933	3191.21
414.826	3166.36
417.719	3168.68
420.611	3149.82
423.504	3152.07
426.397	3129.34
429.29	3135.76
432.182	3129.09
435.075	3097.41
437.968	3127.63
440.86	3112.32
443.753	3146.3
446.646	3115.74
449.538	3107.13
452.431	3068.99
455.324	3118.7
458.217	3103.57
461.109	3065.6
464.002	3102.38
466.895	3063.42
469.787	3069.86
472.68	3096.21
475.573	3064.74
478.466	3070.76
481.358	3083.95
484.251	3060.87
487.144	3096.1
490.036	3078.66
492.929	3082.23
495.822	3066.86
498.714	3048.23
501.607	3045.58
504.5	3047.16
507.393	3055.66
510.285	3075.24
513.178	3051.33
516.071	3084.15
518.963	3070.12
521.856	3064.97
524.749	3069.03
527.641	3071.34
530.534	3072.66
533.427	3069.99
536.32	3104.73
539.212	3080.45
542.105	3071.96
544.998	3099.66
547.89	3152.6
550.783	3131.45
553.676	3162.78
556.568	3139.04
559.461	3202.2
562.354	3174.38
565.247	3199.54
568.139	3218.6
571.032	3203.57
573.925	3289.78
576.817	3307.16
579.71	3262.7
582.603	3250.57
585.495	3299.56
588.388	3296.08
591.281	3308.65
594.174	3330.73
597.066	3300.61
599.959	3348.09
602.852	3396.43
605.744	3368.64
608.637	3372.6
611.53	3397.47
614.423	3405.29
617.315	3373.52
620.208	3402.07
623.101	3391.51
625.993	3394.09
628.886	3391.39
631.779	3407.09
634.671	3368.71
637.564	3383.92
640.457	3385.24
643.35	3403.46
646.242	3416.87
649.135	3410.7
652.028	3383.98
654.92	3410.61
657.813	3375.32
660.706	3389.17
663.598	3387.27
666.491	3353.89
669.384	3357.16
672.277	3355.81
675.169	3311.13
678.062	3335.69
680.955	3342.24
683.847	3368.18
686.74	3297.88
689.633	3318.44
692.525	3322.22
695.418	3297.31
698.311	3309.73
701.204	3383.68
704.096	3309.28
706.989	3322.82
709.882	3328.38
712.774	3347.17
715.667	3370.55
718.56	3353.56
721.452	3368.51
724.345	3381.08
727.238	3387.93
730.131	3424.47
733.023	3393.21
735.916	3415.07
738.809	3428.78
741.701	3444
744.594	3498.89
747.487	3534.8
750.38	3507.36
753.272	3580.1
756.165	3612.21
759.058	3617.07
761.95	3630.38
764.843	3685.22
767.736	3744.25
770.628	3762.52
773.521	3810.42
776.414	3881.68
779.307	3943.99
782.199	3913.84
785.092	3992.78
787.985	4006.9
790.877	4096.17
793.77	4094.17
796.663	4136.03
799.555	4193.59
802.448	4198.64
805.341	4214.44
808.234	4208.82
811.126	4283
814.019	4272.5
816.912	4251.77
819.804	4203.76
822.697	4281.61
825.59	4178.43
828.482	4175.97
831.375	4184.77
834.268	4123.23
837.16	4113.98
840.053	4079.39
842.946	4026.16
845.839	4002.27
848.731	3926.01
851.624	3852.09
854.517	3815.72
857.409	3763.5
860.302	3730.1
863.195	3621.82
866.087	3627.27
868.98	3532.11
871.873	3433.84
874.766	3329.51
877.658	3301.38
880.551	3147.61
883.444	3117.86
886.337	3060.43
889.229	2945.68
892.122	2887.56
895.015	2814.65
897.907	2717.19
900.8	2637.43
903.693	2596.96
906.585	2498.05
909.478	2431.06
912.371	2414.99
915.264	2321.72
918.156	2243.71
921.049	2190.08
923.942	2112.92
926.834	2097.21
929.727	2044.65
932.62	2014.63
935.512	1990.38
938.405	1940.09
941.298	1911.32
944.191	1880.56
947.083	1856.09
949.976	1823.09
952.869	1809.63
955.761	1791.57
958.654	1787.67
961.547	1799.68
964.439	1734.17
967.332	1722.97
970.225	1737.42
973.117	1704.14
976.01	1716.76
978.903	1707.1
981.796	1703.03
984.688	1691.13
987.581	1663.69
990.474	1693.97
993.366	1666.7
996.259	1641.84
999.152	1649.87
1002.04	1637.91
1004.94	1639.72
1007.83	1620.69
1010.72	1613.42
1013.62	1624.66
1016.51	1580.33
1019.4	1586.46
1022.29	1595.23
1025.19	1593.57
1028.08	1537.6
1030.97	1589.69
1033.86	1588.17
1036.76	1557.82
1039.65	1569.3
1042.54	1553.81
1045.43	1556.26
1048.33	1575.48
1051.22	1571.78
1054.11	1566.04
1057.01	1543.77
1059.9	1535.78
1062.79	1544
1065.68	1566.88
1068.58	1539.52
1071.47	1538.45
1074.36	1524.49
1077.26	1558.09
1080.15	1559.73
1083.04	1578.72
1085.93	1579.17
1088.83	1516.69
1091.72	1552.55
1094.61	1539.86
1097.5	1580.53
1100.4	1553.99
1103.29	1547.28
1106.18	1548.25
1109.07	1536.12
1111.97	1538.47
1114.86	1550.92
1117.75	1506.31
1120.64	1532.13
1123.54	1577.79
1126.43	1551.71
1129.32	1548.77
1132.22	1586.68
1135.11	1540.55
1138	1579.7
1140.89	1549.49
1143.79	1581.9
1146.68	1590.12
1149.57	1548.46
1152.46	1577.92
1155.36	1581.88
1158.25	1589.18
1161.14	1575.67
1164.04	1587.62
1166.93	1572.2
1169.82	1581.17
1172.71	1571.61
1175.61	1607.48
1178.5	1572.65
1181.39	1602
1184.29	1580.01
1187.18	1607.85
1190.07	1579.41
1192.96	1613.59
1195.86	1594.13
1198.75	1610.77
1201.64	1608.06
1204.53	1625.86
1207.43	1585.26
1210.32	1614.9
1213.21	1640.68
1216.1	1594.8
1219	1646.38
1221.89	1654.72
1224.78	1616.4
1227.67	1643.9
1230.57	1645.02
1233.46	1641.12
1236.35	1629.72
1239.25	1662.95
1242.14	1657.3
1245.03	1644.1
1247.92	1652.57
1250.82	1662.87
1253.71	1650.02
1256.6	1686.93
1259.49	1657.03
1262.39	1657.78
1265.28	1678.52
1268.17	1679.64
1271.07	1696.52
1273.96	1691.32
1276.85	1706.47
1279.74	1713.08
1282.64	1737.61
1285.53	1724.92
1288.42	1707.3
