Measurement: Raman, 785 nm, unoriented, Raman Data RAW
Mineral: Euxenite-(Y)
Rruff sample: R070324
Ideal chemistry: (Y^3+^,Ca,Ce^3+^,U^4+^,Th^4+^)(Nb^5+^,Ta^5+^,Ti^4+^)_2_O_6_
Locality: Impilahti Parish, Lake Ladoga region, Russia
Source: James Shigley
Description: Vitreous amorphous dark brown massive
Raman shift (cm-1)	intensity
187.069	13748.9
189.962	13814.4
192.855	14137.2
195.748	14213.6
198.64	14386.1
201.533	14499.1
204.426	14540.8
207.318	14628.6
210.211	14673.3
213.104	14748.5
215.996	14716.9
218.889	14873.1
221.782	15013.8
224.674	15146.9
227.567	15035.5
230.46	15088.8
233.353	15103.8
236.245	15192.5
239.138	15271.2
242.031	15302.2
244.923	15308.5
247.816	15266.2
250.709	15305.9
253.601	15380.7
256.494	15327.4
259.387	15441.6
262.28	15436.7
265.172	15444.3
268.065	15421.1
270.958	15493.4
273.85	15518.9
276.743	15524.4
279.636	15535.3
282.529	15547.8
285.421	15599.5
288.314	15556
291.207	15673.9
294.099	15517.6
296.992	15508.1
299.885	15479
302.777	15436
305.67	15554.1
308.563	15590.6
311.455	15501.3
314.348	15392.5
317.241	15377
320.134	15376.4
323.026	15328
325.919	15299.1
328.812	15350.8
331.704	15443.1
334.597	15331.9
337.49	15351.5
340.382	15298.4
343.275	15206.6
346.168	15212.5
349.061	15188.9
351.953	15273.3
354.846	15156.2
357.739	15198.9
360.631	15227.2
363.524	15183.5
366.417	15130.8
369.31	15145
372.202	15148.2
375.095	15147.1
377.988	15117.3
380.88	15085.3
383.773	15063.4
386.666	15011.1
389.558	15016.1
392.451	14925.1
395.344	15003.9
398.236	14982.8
401.129	14959.9
404.022	15000.3
406.915	14852.4
409.807	14794.5
412.7	14948.7
415.593	14836.5
418.485	14803.6
421.378	14843.5
424.271	14787.6
427.163	14725.5
430.056	14756.4
432.949	14672.1
435.842	14644.7
438.734	14690.8
441.627	14520.5
444.52	14616
447.412	14575.8
450.305	14612.1
453.198	14532.2
456.091	14427.9
458.983	14516.4
461.876	14481.4
464.769	14481
467.661	14444.8
470.554	14488.7
473.447	14495.1
476.339	14372.3
479.232	14425.2
482.125	14337.7
485.017	14289.1
487.91	14324.3
490.803	14297.5
493.696	14345.2
496.588	14256.8
499.481	14244.6
502.374	14208
505.266	14148.3
508.159	14225.3
511.052	14177.7
513.944	14188.9
516.837	14199.7
519.73	14099.7
522.623	14179.9
525.515	14107.2
528.408	14054.6
531.301	14161.2
534.193	14240.6
537.086	14150.2
539.979	14088
542.871	14114.3
545.764	14128.9
548.657	14110.3
551.55	14045
554.442	14089.1
557.335	14098.3
560.228	14141.5
563.12	14230.2
566.013	14167.6
568.906	14181.4
571.798	14171.6
574.691	14206.1
577.584	14154.9
580.477	14259.3
583.369	14196.4
586.262	14230.4
589.155	14180.5
592.047	14197.5
594.94	14110.1
597.833	14186.7
600.726	14080.5
603.618	14226.9
606.511	14097.4
609.404	14172.8
612.296	14108.1
615.189	14121.3
618.082	14109.9
620.974	14139.3
623.867	14123.9
626.76	14104.3
629.653	14026.2
632.545	14143.6
635.438	14033
638.331	14046.6
641.223	13988.2
644.116	13959.1
647.009	13979.8
649.901	13994
652.794	13942
655.687	13930.4
658.58	13862.7
661.472	13915
664.365	13862.5
667.258	13811.6
670.15	13747.4
673.043	13753.2
675.936	13728.4
678.828	13680.2
681.721	13760.5
684.614	13689.4
687.506	13587.5
690.399	13594.1
693.292	13579.7
696.185	13605.2
699.077	13685.8
701.97	13634.6
704.863	13597.4
707.755	13600.8
710.648	13533.2
713.541	13525.6
716.433	13548.9
719.326	13461.8
722.219	13429.3
725.112	13641
728.004	13547.2
730.897	13556.1
733.79	13519.5
736.682	13537.1
739.575	13613
742.468	13569.8
745.361	13545
748.253	13558.9
751.146	13677.4
754.039	13689.6
756.931	13660.6
759.824	13685.1
762.717	13771
765.609	13819.4
768.502	13865.4
771.395	13880
774.288	14011.1
777.18	13916.4
780.073	14029.6
782.966	14054.1
785.858	14221.2
788.751	14228.3
791.644	14171.7
794.536	14352.1
797.429	14359.6
800.322	14320.9
803.215	14434.9
806.107	14398.5
809	14369
811.893	14407.7
814.785	14409.8
817.678	14393.5
820.571	14351.6
823.463	14267.6
826.356	14264.2
829.249	14286.2
832.141	14215.3
835.034	14137
837.927	14012.9
840.82	14014.8
843.712	13892.3
846.605	13827.3
849.498	13726.8
852.39	13559.2
855.283	13518.1
858.176	13429
861.068	13231.5
863.961	13222.5
866.854	13060.2
869.747	12948.4
872.639	12747.6
875.532	12736.4
878.425	12545
881.317	12444.5
884.21	12313.9
887.103	12175.1
889.995	12083.2
892.888	11868.1
895.781	11688
898.674	11602.8
901.566	11478.6
904.459	11343.7
907.352	11341.6
910.244	11133.6
913.137	11023.7
916.03	10954.5
918.923	10968.6
921.815	10708.6
924.708	10711
927.601	10579.4
930.493	10549.8
933.386	10382.6
936.279	10356.3
939.171	10410.5
942.064	10247.3
944.957	10156.5
947.85	10134.6
950.742	10150.4
953.635	10036.8
956.528	10047
959.42	10015.2
962.313	9886.54
965.206	9898.24
968.098	9842.47
970.991	9770.72
973.884	9788.3
976.777	9763.95
979.669	9718.15
982.562	9789.62
985.455	9722.69
988.347	9680.22
991.24	9633.68
994.133	9647.21
997.025	9587.78
999.918	9605.26
1002.81	9545.12
1005.7	9523.53
1008.6	9531.71
1011.49	9521.08
1014.38	9450.65
1017.27	9392.06
1020.17	9396.29
1023.06	9351.71
1025.95	9382.9
1028.85	9338.1
1031.74	9267.65
1034.63	9364.22
1037.52	9252.69
1040.42	9276.04
1043.31	9338.54
1046.2	9293.52
1049.09	9250.41
1051.99	9179.91
1054.88	9189.75
1057.77	9198.71
1060.66	9192.3
1063.56	9247.98
1066.45	9246.04
1069.34	9136.83
1072.24	9211.13
1075.13	9221.17
1078.02	9125.89
1080.91	9285.19
1083.81	9127.15
1086.7	9266.66
1089.59	9180.87
1092.48	9179.05
1095.38	9183.22
1098.27	9193.38
1101.16	9199.06
1104.06	9189.42
1106.95	9216.53
1109.84	9225.73
1112.73	9233.01
1115.63	9275.94
1118.52	9304.72
1121.41	9308.92
1124.3	9373.04
1127.2	9335.05
1130.09	9384.11
1132.98	9541.94
1135.88	9533.65
1138.77	9501.33
1141.66	9531.38
1144.55	9565.81
1147.45	9656.68
1150.34	9739.69
1153.23	9691.24
1156.12	9739.77
1159.02	9812.38
1161.91	10054.2
1164.8	9888.76
1167.69	9946.75
1170.59	9895.42
1173.48	9982.36
1176.37	10121.4
1179.27	10140.4
1182.16	10139.6
1185.05	10172.9
1187.94	10206.6
1190.84	10251.7
1193.73	10272.8
1196.62	10286.9
1199.51	10312.6
1202.41	10342.8
1205.3	10365.9
1208.19	10299.2
1211.09	10341.3
1213.98	10311.7
1216.87	10369.7
1219.76	10359.1
1222.66	10305.5
1225.55	10266.2
1228.44	10290.4
1231.33	10308.2
1234.23	10299.9
1237.12	10309.4
