Measurement: Raman, 785 nm, unoriented, Raman Data RAW
Mineral: Euxenite-(Y)
Rruff sample: R060856
Ideal chemistry: (Y^3+^,Ca,Ce^3+^,U^4+^,Th^4+^)(Nb^5+^,Ta^5+^,Ti^4+^)_2_O_6_
Locality: Betafo, Madagascar
Source: Michael Scott
Description: Black glassy submetallic metamict, confirmed by X-ray diffraction after heating, R080101
Raman shift (cm-1)	intensity
200.112	18577.2
203.005	18557.2
205.898	18465.8
208.791	18436.9
211.683	18159
214.576	18231.5
217.469	18270.4
220.361	18339.9
223.254	18267
226.147	18171.3
229.039	18150.5
231.932	18236.4
234.825	18287.6
237.718	18318.3
240.61	18366.6
243.503	18364.4
246.396	18321.7
249.288	18255
252.181	18324.1
255.074	18450.4
257.966	18524.8
260.859	18613.2
263.752	18573.1
266.645	18564.5
269.537	18658.8
272.43	18722.5
275.323	18717.2
278.215	18788.8
281.108	19059.8
284.001	18970.3
286.894	19036.7
289.786	18991.2
292.679	19065.8
295.572	19039.1
298.464	19156.5
301.357	19315
304.25	19502.3
307.142	19600.5
310.035	19538.8
312.928	19372
315.82	19311.7
318.713	19309.6
321.606	19223.3
324.499	19325.6
327.391	19476.5
330.284	19470.7
333.177	19381.9
336.069	19214.6
338.962	19107.1
341.855	19032.1
344.748	19102
347.64	19039.4
350.533	19111
353.426	19041.6
356.318	18818.6
359.211	18890
362.104	18593
364.996	18500.2
367.889	18436.3
370.782	18347.1
373.675	18371.4
376.567	18258.8
379.46	17949.2
382.353	17818.1
385.245	17665.3
388.138	17448
391.031	17401.1
393.923	17369.8
396.816	17197.5
399.709	17116.9
402.601	16905.4
405.494	16764.2
408.387	16471.4
411.28	16432.1
414.172	16333.9
417.065	16300.5
419.958	16171.8
422.85	16012.6
425.743	15893.5
428.636	15681.4
431.529	15588.6
434.421	15523.6
437.314	15342.6
440.207	15362.5
443.099	15272.3
445.992	15189.2
448.885	15030.4
451.777	14824.1
454.67	14731.1
457.563	14640.5
460.455	14519.7
463.348	14461.8
466.241	14372.7
469.134	14308.8
472.026	14193
474.919	14043.5
477.812	13990.3
480.704	13819
483.597	13743.6
486.49	13702.3
489.382	13733.9
492.275	13639.9
495.168	13501.1
498.061	13325.2
500.953	13286.6
503.846	13168.3
506.739	13077.5
509.631	13084.5
512.524	12890.9
515.417	12886.5
518.309	12802.7
521.202	12751.3
524.095	12658.7
526.988	12458.2
529.88	12350.3
532.773	12125.6
535.666	12038.2
538.558	12133.8
541.451	12114.6
544.344	11955.3
547.236	11908.3
550.129	11844
553.022	11830.7
555.915	11789.5
558.807	11806.9
561.7	11762
564.593	11647.3
567.485	11621.9
570.378	11446
573.271	11508.3
576.163	11476.9
579.056	11510
581.949	11478.8
584.842	11402.3
587.734	11451.3
590.627	11513.8
593.52	11472.7
596.412	11479.8
599.305	11576.8
602.198	11507.9
605.091	11539.1
607.983	11601
610.876	11629.5
613.769	11634.4
616.661	11730.7
619.554	11733.7
622.447	11835.5
625.339	11911.2
628.232	11825.7
631.125	11915.8
634.018	11895.7
636.91	11972.9
639.803	11993.2
642.696	12018.1
645.588	11943.1
648.481	11816
651.374	11782.2
654.266	11612.6
657.159	11544.4
660.052	11375.7
662.944	11155.3
665.837	10841.8
668.73	10720.2
671.623	10512.7
674.515	10332.9
677.408	10162
680.301	10031.8
683.193	9790.12
686.086	9695.73
688.979	9629.92
691.871	9475.94
694.764	9451.79
697.657	9306.44
700.55	9231.56
703.442	9113.28
706.335	8987.44
709.228	8960.55
712.12	8999.27
715.013	8892.27
717.906	8884.9
720.798	8823.03
723.691	8807.27
726.584	8796.85
729.477	8697.74
732.369	8687.22
735.262	8610.96
738.155	8627.69
741.047	8584.4
743.94	8657.03
746.833	8497.15
749.726	8566.24
752.618	8486.25
755.511	8493.63
758.404	8490.93
761.296	8334.91
764.189	8373.15
767.082	8247.68
769.974	8194.31
772.867	8132.97
775.76	8170.86
778.653	8028.6
781.545	7987.79
784.438	8039.64
787.331	7954.29
790.223	7929.21
793.116	7831.81
796.009	7715.85
798.901	7570.1
801.794	7505.73
804.687	7399.95
807.58	7425.03
810.472	7464.21
813.365	7363.34
816.258	7318.9
819.15	7234.6
822.043	7134.48
824.936	7064.57
827.828	7069.86
830.721	6916.59
833.614	6967.36
836.507	6835.64
839.399	6720.43
842.292	6624.9
845.185	6600.72
848.077	6551.67
850.97	6406.21
853.863	6346.42
856.755	6177.08
859.648	6195.2
862.541	6071.42
865.434	5874.76
868.326	5872.86
871.219	5730.2
874.112	5618.77
877.004	5604.85
879.897	5436.17
882.79	5382.95
885.683	5337.27
888.575	5201.32
891.468	5212.4
894.361	4985.61
897.253	4926.86
900.146	4865.6
903.039	4743.18
905.931	4706.15
908.824	4613.45
911.717	4553.76
914.61	4485.89
917.502	4396.15
920.395	4219.34
923.288	4163.44
926.18	4148.26
929.073	4128.42
931.966	4031.7
934.858	4029.93
937.751	3849.88
940.644	3861.02
943.537	3804.77
946.429	3741.63
949.322	3665.55
952.215	3649.97
955.107	3659.11
958	3553.68
960.893	3490.8
963.785	3489.34
966.678	3407.42
969.571	3397.35
972.463	3353.99
975.356	3338.8
978.249	3303.88
981.142	3335.63
984.034	3282.18
986.927	3241.79
989.82	3104.76
992.712	3034.31
995.605	3151.79
998.498	3215.63
1001.39	3225.05
1004.28	3297.92
1007.18	3247.01
1010.07	3309.24
1012.96	3293.57
1015.85	3273.48
1018.75	3230.67
1021.64	3207.42
1024.53	3225.29
1027.42	3271.19
1030.32	3359.8
1033.21	3242.38
1036.1	3386.6
1039	3465.76
1041.89	3562.35
1044.78	3549.15
1047.67	3570.72
1050.57	3580.46
1053.46	3672.18
1056.35	3740.63
1059.24	3766.34
1062.14	3817.76
1065.03	3881.63
1067.92	4030.25
1070.82	4108.33
1073.71	4111.14
1076.6	4257.02
1079.49	4383.22
1082.39	4443.23
1085.28	4640.3
1088.17	4721.19
1091.06	4871.41
1093.96	4987.16
1096.85	5161.26
1099.74	5256.14
1102.63	5478.25
1105.53	5630.96
1108.42	5865.89
1111.31	6073.77
1114.21	6259.58
1117.1	6503.54
1119.99	6797.44
1122.88	7013
1125.78	7344.09
1128.67	7563.79
1131.56	7875.91
1134.45	8223.94
1137.35	8488.32
1140.24	8829.9
1143.13	9257.35
1146.03	9586.33
1148.92	9963.74
1151.81	10411.6
1154.7	10817.2
1157.6	11314.8
1160.49	11742.6
1163.38	12186.3
1166.27	12694
1169.17	13039.4
1172.06	13469.4
1174.95	13996.1
1177.85	14395.5
1180.74	14732.4
1183.63	15157.2
1186.52	15601.2
1189.42	15928
1192.31	16284
1195.2	16667.5
1198.09	17003.1
1200.99	17269.3
1203.88	17560
1206.77	17765.2
1209.66	18144.7
1212.56	18448.4
1215.45	18666
1218.34	19015.1
1221.24	19234.7
1224.13	19343.6
1227.02	19489.1
1229.91	19589.3
1232.81	19694.9
1235.7	19597.2
1238.59	19734.5
1241.48	19764.8
1244.38	19963.8
1247.27	19886.9
1250.16	19976.8
1253.06	19870.8
1255.95	20014.3
1258.84	20207.6
1261.73	20356.2
1264.63	20609.7
