Measurement: Raman, 532 nm, unoriented, Raman Data RAW
Mineral: Euxenite-(Y)
Rruff sample: R060856
Ideal chemistry: (Y^3+^,Ca,Ce^3+^,U^4+^,Th^4+^)(Nb^5+^,Ta^5+^,Ti^4+^)_2_O_6_
Locality: Betafo, Madagascar
Source: Michael Scott
Description: Black glassy submetallic metamict, confirmed by X-ray diffraction after heating, R080101
Raman shift (cm-1)	intensity
149.004	17180.4
151.896	17213.2
154.789	17359.7
157.682	17387.1
160.574	17788.9
163.467	17784.9
166.36	17787.2
169.252	17607.2
172.145	17328.2
175.038	17301.9
177.931	17292.5
180.823	17257.4
183.716	17274.4
186.609	17388.1
189.501	17365.9
192.394	17284.3
195.287	17119.8
198.179	17190.5
201.072	17126.9
203.965	17387.7
206.858	17374.2
209.75	17372.6
212.643	17393.5
215.536	17413.4
218.428	17545.3
221.321	17510
224.214	17507.5
227.107	17554.4
229.999	17585.7
232.892	17643.7
235.785	17523.5
238.677	17542.2
241.57	17639.6
244.463	17698.3
247.355	17889.6
250.248	17750.3
253.141	17731
256.033	17556.1
258.926	17662.4
261.819	17733.5
264.712	17828.1
267.604	17816
270.497	17880.3
273.39	17842.1
276.282	17870.6
279.175	17841
282.068	17915.3
284.96	17959.7
287.853	17883.6
290.746	17897
293.639	17983.1
296.531	17970
299.424	17970.9
302.317	18109.7
305.209	18243.9
308.102	18230.7
310.995	18242.9
313.887	18162.6
316.78	18137.2
319.673	17938.5
322.565	17964.5
325.458	17976
328.351	18060.9
331.244	17946.6
334.136	17937.9
337.029	18004.1
339.922	18007.1
342.814	17887.2
345.707	17823.8
348.6	17828
351.493	17970.4
354.385	17938.2
357.278	17824.2
360.171	17750.7
363.063	17852.3
365.956	17704.1
368.849	17790.9
371.741	17894.2
374.634	17823.2
377.527	17943.7
380.419	17878.3
383.312	17923.3
386.205	17993.4
389.098	18078.9
391.99	17995.8
394.883	17964.7
397.776	17966.5
400.668	17987.8
403.561	18010.7
406.454	17895.1
409.346	17870.9
412.239	17808.6
415.132	17948
418.024	17909.5
420.917	17898.8
423.81	17858.3
426.703	17779.3
429.595	17731.9
432.488	17809.1
435.381	17805.7
438.273	17770.2
441.166	17856.6
444.059	17851.3
446.952	17762.8
449.844	17720.7
452.737	17803.1
455.63	17773.9
458.522	17788
461.415	17778.3
464.308	17800.7
467.2	17828
470.093	17835
472.986	17883.5
475.878	17813.3
478.771	17819.6
481.664	17854.9
484.557	17866.6
487.449	17889.4
490.342	17908.8
493.235	17762.3
496.127	17884.3
499.02	17757.2
501.913	17750.2
504.805	17856.1
507.698	17914.1
510.591	17941.6
513.484	17891.9
516.376	17950.2
519.269	18083.2
522.162	18221.6
525.054	18025.8
527.947	18144.8
530.84	18140.7
533.732	18105.8
536.625	17942.8
539.518	17956.3
542.41	18145.3
545.303	18239.8
548.196	18170.9
551.089	18284
553.981	18291.7
556.874	18270
559.767	18397.9
562.659	18384.3
565.552	18493.5
568.445	18494.5
571.337	18543.8
574.23	18731.1
577.123	18642
580.016	18695.8
582.908	18762.1
585.801	18834.2
588.694	18900.8
591.586	18795.4
594.479	18919.4
597.372	19005.1
600.264	18992.7
603.157	19154.4
606.05	19222.2
608.942	19324.1
611.835	19383.9
614.728	19417.1
617.621	19407.9
620.513	19579.1
623.406	19656.6
626.299	19773.6
629.191	19748.2
632.084	19834
634.977	19692.6
637.87	19791.5
640.762	19735.6
643.655	19736.3
646.548	19843.7
649.44	19723.9
652.333	19816.3
655.226	19624.2
658.118	19614.9
661.011	19488.6
663.904	19318.8
666.797	19170.8
669.689	19133.6
672.582	19077.5
675.475	18908
678.367	18770.3
681.26	18712.1
684.153	18719.8
687.045	18775.1
689.938	18705.2
692.831	18684.2
695.723	18797
698.616	18738.3
701.509	18701.8
704.402	18679.8
707.294	18604.3
710.187	18753.1
713.08	18736.7
715.972	18770
718.865	18862.7
721.758	18857.9
724.65	18987.9
727.543	19015.7
730.436	19051.9
733.328	18973.4
736.221	18955.4
739.114	18983
742.007	18926
744.899	19045.3
747.792	19126.4
750.685	19076.1
753.577	18848.1
756.47	18961.9
759.363	18961.5
762.255	18881.5
765.148	18846.8
768.041	18814.6
770.934	18960.9
773.826	18875.6
776.719	18698.7
779.612	18653.5
782.504	18697.7
785.397	18456.5
788.29	18390.4
791.183	18390.6
794.075	18496.1
796.968	18170.2
799.861	18160.2
802.753	17993.9
805.646	17923.2
808.539	17705.9
811.431	17575.7
814.324	17391.8
817.217	17414.4
820.109	17144.9
823.002	17163.6
825.895	16885
828.788	16898.8
831.68	16655.6
834.573	16544.2
837.466	16312.5
840.358	16190.9
843.251	16116.2
846.144	15859.6
849.036	15695.7
851.929	15574
854.822	15368
857.715	15152
860.607	15101.6
863.5	14857.2
866.393	14624.7
869.285	14478.9
872.178	14238.7
875.071	14094.8
877.963	13878.3
880.856	13815.6
883.749	13665
886.641	13529.6
889.534	13369.6
892.427	13215.2
895.32	13109.5
898.212	12892
901.105	12695.6
903.998	12461.7
906.89	12206.5
909.783	12117.1
912.676	12014.3
915.568	11747.4
918.461	11581.6
921.354	11434.7
924.246	11272
927.139	11246.3
930.032	11120.1
932.925	10946.3
935.817	10796
938.71	10652.5
941.603	10566.5
944.495	10483.2
947.388	10257.2
950.281	10198.7
953.173	10106.1
956.066	9962.79
958.959	9937.15
961.852	9841.66
964.744	9750.45
967.637	9627.29
970.53	9685.59
973.422	9605.16
976.315	9492.75
979.208	9466.59
982.101	9441.31
984.993	9395.86
987.886	9380.28
990.779	9348.53
993.671	9275.61
996.564	9283.78
999.457	9184.63
1002.35	9231.7
1005.24	9206.35
1008.13	9240.54
1011.03	9164.41
1013.92	9199.06
1016.81	9120.87
1019.71	9172.24
1022.6	9206.49
1025.49	9234.33
1028.38	9231.81
1031.28	9146.36
1034.17	9162.19
1037.06	9135.95
1039.95	9209.92
1042.85	9148.15
1045.74	9054.9
1048.63	9045.14
1051.53	9111.98
1054.42	9141.21
1057.31	9097.5
1060.2	9148.41
1063.1	9165.51
1065.99	9092.55
1068.88	9093.1
1071.77	9056.34
1074.67	9068.36
1077.56	9033.96
1080.45	9017.78
1083.35	9088.46
1086.24	9070.18
1089.13	9101.17
1092.02	9060.44
1094.92	9149.83
1097.81	9092.15
1100.7	9092.96
1103.59	9117.51
1106.49	9143.41
1109.38	9078.77
1112.27	9060.1
1115.16	9024.33
1118.06	9053.74
1120.95	9056.27
1123.84	8977.7
1126.73	9011.81
1129.63	9140.8
1132.52	9094.47
1135.41	9085.31
1138.31	9038.73
1141.2	9066.09
1144.09	9089.44
1146.98	9060.6
1149.88	9044.26
1152.77	9126.45
1155.66	9130.09
1158.56	9063.89
1161.45	9063.03
1164.34	9131.87
1167.23	9114.24
1170.13	9075.97
1173.02	9111.94
1175.91	9177.42
1178.8	9208.46
1181.7	9202.84
1184.59	9182.42
1187.48	9241.26
1190.38	9165.19
1193.27	9174.92
1196.16	9272.03
1199.05	9270.41
1201.94	9243.76
1204.84	9255.45
1207.73	9300.57
1210.62	9290.42
1213.52	9274.39
1216.41	9387.02
1219.3	9267.54
1222.19	9337.84
1225.09	9371.96
1227.98	9294.5
1230.87	9364.49
1233.77	9419.6
1236.66	9408.26
1239.55	9507.21
1242.44	9469.44
1245.34	9475
1248.23	9576.6
1251.12	9419.76
1254.01	9510.79
1256.91	9459.43
1259.8	9499.66
1262.69	9463.91
1265.59	9478.06
1268.48	9528.6
1271.37	9557.4
