Measurement: Raman, 532 nm, unoriented, Raman Data Processed
Mineral: Faizievite
Rruff sample: R070221
Ideal chemistry: Li_6_K_2_Na(Ca_6_Na)Ti^4+^_4_(Si_6_O_18_)_2_(Si_12_O_30_)F_2_
Locality: Dara-i-Pioz Glacier, Alayskiy (Alai) Range, Tien Shan Mts, Districts of the Republican Subordination, Tajikistan
Source: Michael Scott
Description: Pale brownish yellow massive associated with quartz
Measured chemistry: Li_6.00_(K_1.78_[box]_0.20_Ba_0.02_)_Σ=2_(Na_0.80_K_0.20_)_Σ=1_(Ca_6.12_Na_0.74_Sr_0.11_Mn_0.03_)_Σ=7_(Ti_3.88_Al_0.10_Nb^5+^_0.02_)_Σ=4_(Si_6.00_O_18_)_2_(Si_12.00_O_30_)(F_1.72_(OH)_0.28_)_Σ=2_; Li assumed by stoichiometry; OH by charge balance
Raman shift (cm-1)	intensity
173.286	0
176.178	59.6387
179.071	48.269
181.964	0.002441
184.856	70.9541
187.749	37.0957
190.642	118.559
193.535	53.5215
196.427	110.085
199.32	95.5264
202.213	139.343
205.105	40.0542
207.998	62.5215
210.891	80.7891
213.783	116.877
216.676	96.8462
219.569	98.1172
222.462	29.2871
225.354	119.262
228.247	114.85
231.14	95.1426
234.032	43.4932
236.925	139.534
239.818	167.113
242.71	61.2734
245.603	81.1904
248.496	66.4014
251.388	59.335
254.281	137.401
257.174	54.6846
260.067	87.6123
262.959	71.7988
265.852	109.247
268.745	45.584
271.637	28.5918
274.53	12.792
277.423	79.8057
280.315	116.772
283.208	89.2314
286.101	33.3369
288.994	119.835
291.886	104.775
294.779	49.1475
297.672	125.826
300.564	86.5996
303.457	59.8066
306.35	87.6748
309.243	87.2519
312.135	46.0059
315.028	13.3916
317.921	15.1416
320.813	1.98926
323.706	54.2891
326.599	72.7705
329.491	79.46
332.384	28.6113
335.277	49.917
338.17	67.0049
341.062	79.9443
343.955	153.107
346.848	70.3076
349.74	74.6231
352.633	154.929
355.526	177.927
358.418	122.07
361.311	207.207
364.204	206.32
367.097	86.0322
369.989	116.105
372.882	188.837
375.775	194.117
378.667	167.238
381.56	148.275
384.453	126.697
387.346	153.408
390.238	64.5586
393.131	44.4414
396.024	40.707
398.916	42.8828
401.809	65.5293
404.702	97.3652
407.594	84.2461
410.487	5.56055
413.38	38.6094
416.272	76.1738
419.165	96.5293
422.058	140.23
424.951	150.606
427.843	167.404
430.736	168.921
433.629	86.8027
436.521	186.455
439.414	148.699
442.307	10.3457
445.2	130.643
448.092	72.4473
450.985	32.8477
453.878	150.859
456.77	209.107
459.663	88.7383
462.556	158.207
465.448	120.022
468.341	203.281
471.234	193.773
474.127	188.998
477.019	184.484
479.912	144.023
482.805	91.2402
485.697	91.1543
488.59	103.469
491.483	94.209
494.375	105.545
497.268	64.9375
500.161	134.232
503.053	75.3301
505.946	122.215
508.839	85.125
511.732	159.502
514.624	91.9238
517.517	1.38672
520.41	145.93
523.302	5.52539
526.195	82.2324
529.088	84.9981
531.981	30.4219
534.873	79.709
537.766	80.7852
540.659	51.3848
543.551	81.4902
546.444	60.4316
549.337	152.578
552.229	192.812
555.122	211.467
558.015	130.422
560.908	250.576
563.8	254.783
566.693	153.217
569.586	158.102
572.478	237.397
575.371	150.809
578.264	0.507813
581.156	50.832
584.049	67.1113
586.942	185.773
589.835	78.6445
592.727	9.22461
595.62	26.2988
598.513	158.477
601.405	6.61523
604.298	105.756
607.191	103.412
610.083	38.5625
612.976	78.4785
615.869	85.4629
618.762	138.842
621.654	157.504
624.547	116.223
627.44	145.594
630.332	157.889
633.225	205.228
636.118	277.078
639.01	241.873
641.903	283.234
644.796	306.832
647.689	388.398
650.581	271.543
653.474	326.406
656.367	307.92
659.259	150.051
662.152	326.19
665.045	182.959
667.938	217.709
670.83	189.107
673.723	177.127
676.616	228.158
679.508	124.26
682.401	89.8418
685.294	66.8633
688.186	173.41
691.079	166.291
693.972	142.279
696.865	163.727
699.757	118.418
702.65	84.1602
705.543	57.9355
708.435	47.8633
711.328	34.8965
714.221	78.9121
717.113	53.2129
720.006	8.32031
722.899	71.5234
725.792	42.6973
728.684	53.791
731.577	138.934
734.47	70.3828
737.362	160.191
740.255	57.2383
743.148	27.293
746.04	45.3867
748.933	52.7852
751.826	134.34
754.719	63.8203
757.611	28.6875
760.504	79.0234
763.397	97.4961
766.289	177.731
769.182	83.1562
772.075	43.2227
774.967	140.309
777.86	97.418
780.753	166.285
783.646	135.809
786.538	95.3125
789.431	103.418
792.324	83.7969
795.216	70.6172
798.109	107.582
801.002	8.14453
803.894	114.285
806.787	64.5234
809.68	102.606
812.573	143.59
815.465	184.023
818.358	2.61328
821.251	134.809
824.143	92.3555
827.036	92.9219
829.929	142.457
832.822	20.0352
835.714	64.7227
838.607	102.594
841.5	194.723
844.392	3.60156
847.285	155.008
850.178	0.496094
853.07	37.8672
855.963	173.34
858.856	106.144
861.749	118.356
864.641	90.7422
867.534	108.859
870.427	47.082
873.319	15.5352
876.212	64.793
879.105	68.8945
881.997	172.461
884.89	194.824
887.783	152.777
890.676	5.125
893.568	210.184
896.461	196.707
899.354	230.742
902.246	168.074
905.139	201.879
908.032	127.258
910.924	27.8867
913.817	170.031
916.71	152.113
919.602	113.836
922.495	146.949
925.388	144.684
928.281	137.82
931.173	76.1172
934.066	138.742
936.959	40.4258
939.851	62.2617
942.744	88.7266
945.637	141.773
948.529	34.2227
951.422	115.18
954.315	136.977
957.208	150.715
960.1	260.293
962.993	163.266
965.886	263.762
968.778	271.629
971.671	234.656
974.564	164.91
977.457	256.809
980.349	224.566
983.242	281.387
986.135	278.648
989.027	228.742
991.92	360.562
994.813	366.961
997.705	292.332
1000.6	214.262
1003.49	273.758
1006.38	196.582
1009.28	280.457
1012.17	245.945
1015.06	142.562
1017.95	218.359
1020.85	141.547
1023.74	180.223
1026.63	8.49609
1029.53	47.6758
1032.42	57.1914
1035.31	170.898
1038.2	25.0664
1041.1	3.08984
1043.99	51.7578
1046.88	15.7539
1049.77	30.7734
1052.67	231.703
1055.56	144.832
1058.45	56.3203
1061.35	103.969
1064.24	115.231
1067.13	144.953
1070.02	248.727
1072.92	47.3242
1075.81	61.4609
1078.7	97.1484
1081.59	74.9414
1084.49	242.961
1087.38	115.332
1090.27	191.691
1093.16	19.8906
1096.06	414.074
1098.95	57.2773
1101.84	261.418
1104.73	195.055
1107.63	173.805
1110.52	196.133
1113.41	7.33203
1116.31	147.711
1119.2	76.7383
1122.09	129.703
1124.98	168.672
1127.88	149.375
1130.77	202.519
1133.66	66.6133
1136.56	206.516
1139.45	137.746
1142.34	254.875
1145.23	344.531
1148.13	34.0391
1151.02	254.734
1153.91	174.562
1156.8	194.773
1159.7	352.812
1162.59	102.633
1165.48	256.703
1168.38	194.375
1171.27	83.7031
1174.16	103.273
1177.05	143.137
1179.95	28.0156
1182.84	166.691
1185.73	77.7266
1188.62	96.3281
1191.52	204.102
1194.41	199.371
1197.3	388.098
1200.19	192.734
1203.09	259.477
1205.98	95.0625
1208.87	248.269
1211.77	321.926
1214.66	136.656
1217.55	143.027
1220.44	139.68
1223.34	216.562
1226.23	249.805
1229.12	75.0273
1232.01	121.582
1234.91	164.703
1237.8	55.3633
1240.69	103.238
1243.59	90.8359
1246.48	9.03906
1249.37	258.293
1252.26	193.164
1255.16	204.762
1258.05	191.594
1260.94	6.60938
1263.83	71.4297
1266.73	240.75
1269.62	131.824
1272.51	93.5898
1275.4	192.742
1278.3	48.3164
1281.19	105.023
1284.08	71.8203
1286.98	170.852
1289.87	150.684
1292.76	67.5273
1295.65	124.172
1298.55	0
