Measurement: Raman, 785 nm, unoriented, Raman Data Processed
Mineral: Fencooperite
Rruff sample: R061032
Ideal chemistry: Ba_6_Fe^3+^_3_Si_8_O_23_(CO_3_)_2_Cl_3_H_2_O
Locality: Trumbull Peak, Mariposa County, California, USA
Source: Michael Scott
Description: Dark gray massive embedded in quartz with reddish-orange halo around the grains
Raman shift (cm-1)	intensity
123.456	0
126.349	0.789673
129.242	130.032
132.134	240.451
135.027	155.132
137.92	102.123
140.812	112.19
143.705	164.44
146.598	292.509
149.491	299.024
152.383	337.715
155.276	276.858
158.169	188.995
161.061	180.658
163.954	178.93
166.847	147.792
169.739	133.16
172.632	120.787
175.525	100.336
178.418	78.2787
181.31	47.2597
184.203	48.6696
187.096	40.613
189.988	8.84918
192.881	2.85687
195.774	13.659
198.667	10.4528
201.559	17.7649
204.452	15.3354
207.345	3.07263
210.237	0.612183
213.13	3.0683
216.023	22.3966
218.915	6.40454
221.808	26.069
224.701	7.14691
227.594	9.67145
230.486	14.261
233.379	18.9011
236.272	15.8605
239.164	20.7839
242.057	39.2116
244.95	17.6769
247.842	29.3723
250.735	37.7885
253.628	33.1521
256.521	18.1374
259.413	17.1737
262.306	42.7034
265.199	42.4046
268.091	45.8321
270.984	25.1548
273.877	35.9827
276.769	26.0111
279.662	33.5336
282.555	7.2652
285.447	15.9561
288.34	12.4172
291.233	24.7644
294.126	36.7929
297.018	50.3969
299.911	70.8017
302.804	68.5932
305.696	67.3828
308.589	62.4695
311.482	56.9318
314.375	85.3954
317.267	88.0639
320.16	83.9671
323.053	75.6101
325.945	50.8351
328.838	57.3818
331.731	29.6005
334.623	42.8444
337.516	16.9303
340.409	21.6545
343.301	23.6257
346.194	0.185303
349.087	30.6819
351.98	14.8328
354.872	21.9537
357.765	26.0221
360.658	7.17105
363.55	8.5899
366.443	10.5574
369.336	13.7082
372.228	59.5732
375.121	50.2735
378.014	107.669
380.907	113.312
383.799	114.378
386.692	88.6219
389.585	73.6566
392.477	77.1773
395.37	67.986
398.263	57.6099
401.156	41.1797
404.048	33.4544
406.941	9.27292
409.834	27.7618
412.726	21.3204
415.619	50.3822
418.512	18.6259
421.404	20.6964
424.297	8.58411
427.19	21.4894
430.082	6.59723
432.975	10.1911
435.868	9.19476
438.761	14.8981
441.653	6.66324
444.546	10.0987
447.439	29.2125
450.331	29.9082
453.224	23.8758
456.117	33.0978
459.01	38.2061
461.902	17.6083
464.795	24.691
467.688	38.1567
470.58	41.7006
473.473	18.3372
476.366	40.0702
479.258	42.6077
482.151	21.918
485.044	10.204
487.937	31.4034
490.829	32.3094
493.722	32.0102
496.615	32.75
499.507	23.9731
502.4	23.4897
505.293	11.9032
508.185	17.2004
511.078	6.80957
513.971	4.2869
516.864	33.7207
519.756	6.40326
522.649	28.8936
525.542	21.6584
528.434	28.5618
531.327	37.0478
534.22	3.47781
537.112	40.7595
540.005	42.1852
542.898	29.5558
545.79	31.6144
548.683	40.2542
551.576	41.494
554.469	26.2585
557.361	18.9193
560.254	10.5354
563.147	20.6002
566.039	15.2925
568.932	14.8615
571.825	16.7047
574.717	5.30658
577.61	6.71695
580.503	18.8016
583.396	43.103
586.288	19.9004
589.181	3.06378
592.074	9.79782
594.966	1.09363
597.859	9.76352
600.752	19.2134
603.645	19.918
606.537	12.0025
609.43	27.5774
612.323	16.2979
615.215	29.8758
618.108	25.033
621.001	31.3913
623.894	27.1332
626.786	10.497
629.679	19.3396
632.572	13.2503
635.464	46.1234
638.357	20.2325
641.25	15.1
644.142	31.7465
647.035	30.7802
649.928	2.0228
652.821	23.7477
655.713	24.5748
658.606	25.1743
661.499	30.5863
664.391	34.6627
667.284	6.11545
670.177	5.54336
673.069	14.03
675.962	16.9292
678.855	26.2871
681.747	17.0337
684.64	21.5356
687.533	8.43823
690.426	40.0716
693.318	11.5084
696.211	27.2602
699.104	8.85492
701.996	50.7968
704.889	3.37482
707.782	30.748
710.674	32.0385
713.567	34.7807
716.46	21.4522
719.353	48.191
722.245	21.0566
725.138	30.2596
728.031	37.8238
730.923	22.4138
733.816	24.9687
736.709	22.2575
739.601	28.1711
742.494	46.303
745.387	21.9357
748.28	36.0368
751.172	29.783
754.065	47.6898
756.958	28.8214
759.85	32.3847
762.743	24.0134
765.636	10.6894
768.529	11.0055
771.421	37.4386
774.314	40.3086
777.207	42.9556
780.099	34.3234
782.992	27.8877
785.885	17.3873
788.777	43.3884
791.67	46.7296
794.563	16.1503
797.456	6.6897
800.348	1.26392
803.241	20.6886
806.134	29.4393
809.026	35.4279
811.919	26.6597
814.812	29.3145
817.704	44.8411
820.597	50.4869
823.49	40.7282
826.383	24.0676
829.275	52.1157
832.168	34.2638
835.061	35.4611
837.953	28.5242
840.846	23.6029
843.739	26.5055
846.631	24.7514
849.524	40.0148
852.417	13.2623
855.309	47.3565
858.202	32.4833
861.095	33.8091
863.988	18.5527
866.88	25.8309
869.773	40.8142
872.666	12.8796
875.558	18.1543
878.451	28.8455
881.344	5.46256
884.236	28.4878
887.129	14.2033
890.022	33.3447
892.915	9.16031
895.807	18.4663
898.7	12.3114
901.593	6.923
904.485	36.753
907.378	14.8128
910.271	21.9077
913.164	18.1326
916.056	5.13489
918.949	12.4018
921.842	2.27942
924.734	21.7669
927.627	14.4482
930.52	11.9807
933.413	39.8399
936.305	23.1963
939.198	18.1069
942.091	13.9767
944.983	0.972168
947.876	6.06415
950.769	21.9141
953.661	30.3582
956.554	13.0888
959.447	25.9809
962.34	11.519
965.232	2.15485
968.125	2.57501
971.018	13.7959
973.91	16.2955
976.803	35.6647
979.696	35.6264
982.588	35.6807
985.481	52.5255
988.374	57.8713
991.266	17.7808
994.159	3.76599
997.052	50.2297
999.945	32.5782
1002.84	44.665
1005.73	78.0509
1008.62	13.2598
1011.51	49.697
1014.41	37.4431
1017.3	35.8799
1020.19	4.08823
1023.09	9.10336
1025.98	13.5023
1028.87	18.9073
1031.76	26.0656
1034.66	51.3028
1037.55	46.4161
1040.44	42.4216
1043.34	29.511
1046.23	49.7007
1049.12	24.7796
1052.01	44.746
1054.91	20.2535
1057.8	51.1904
1060.69	41.1454
1063.58	16.6958
1066.48	30.6302
1069.37	49.9368
1072.26	28.1421
1075.15	44.4639
1078.05	29.4172
1080.94	39.4811
1083.83	23.7195
1086.73	33.7684
1089.62	45.7671
1092.51	30.8898
1095.4	24.9892
1098.3	43.4515
1101.19	3.91122
1104.08	2.77799
1106.97	41.5766
1109.87	18.4788
1112.76	6.35138
1115.65	35.7829
1118.55	7.91425
1121.44	31.8028
1124.33	49.8998
1127.22	28.5946
1130.12	36.3416
1133.01	21.2972
1135.9	5.56546
1138.79	21.748
1141.69	24.9551
1144.58	11.6237
1147.47	1.4516
1150.37	6.32834
1153.26	6.7399
1156.15	10.5667
1159.04	41.4603
1161.94	18.2889
1164.83	23.9706
1167.72	33.1594
1170.61	25.8416
1173.51	15.7065
1176.4	22.7416
1179.29	12.78
1182.18	9.52216
1185.08	6.27988
1187.97	59.1574
1190.86	8.89652
1193.76	20.8284
1196.65	28.0194
1199.54	11.7265
1202.43	9.56082
1205.33	1.20721
1208.22	14.9454
1211.11	35.0027
1214	22.8494
1216.9	34.7547
1219.79	32.0972
1222.68	12.8868
1225.58	19.7628
1228.47	0.91272
1231.36	25.3465
1234.25	6.40039
