Measurement: Raman, 780 nm, unoriented, Raman Data Processed
Mineral: Fergusonite-(Ce)
Rruff sample: R110050
Ideal chemistry: Ce^3+^Nb^5+^O_4_0.3H_2_O
Locality: Mount Malosa, Zomba District, Malawi
Source: Donald M Doell
Description: Brown prismatic crystals on microcline, associated with zircon
Raman shift (cm-1)	intensity
105.181	6764.87
108.556	6912.78
111.931	7050.13
115.305	7262.57
118.68	7463.11
122.055	7724.89
125.43	7963.78
128.805	8266.86
132.179	8530.58
135.554	8839.54
138.929	9115.87
142.304	9363.25
145.679	9586.03
149.054	9783.68
152.428	9920.8
155.803	10033.7
159.178	10142.3
162.553	10248.9
165.928	10312.4
169.302	10410.5
172.677	10495.6
176.052	10628.1
179.427	10743
182.802	10864.6
186.177	11007
189.551	11128.4
192.926	11239.9
196.301	11361.2
199.676	11448
203.051	11555.7
206.425	11632.7
209.8	11665.5
213.175	11677.4
216.55	11696.5
219.925	11690.6
223.299	11694
226.674	11665.9
230.049	11646.5
233.424	11609.4
236.799	11569.4
240.173	11514.2
243.548	11455.2
246.923	11407.9
250.298	11343
253.673	11289.1
257.048	11239.5
260.422	11196
263.797	11163
267.172	11101.4
270.547	11071.4
273.922	11010.2
277.296	10969.8
280.671	10929.4
284.046	10870.4
287.421	10840
290.796	10823.8
294.171	10783.1
297.545	10775.6
300.92	10748.9
304.295	10763.3
307.67	10767.9
311.045	10766.1
314.42	10801.7
317.794	10804.4
321.169	10827.2
324.544	10803.9
327.919	10826
331.293	10811.8
334.668	10813.2
338.043	10836.6
341.418	10783.6
344.793	10735.3
348.168	10707.3
351.542	10654.3
354.917	10635.5
358.292	10567.8
361.667	10512.4
365.042	10440
368.416	10376.8
371.791	10270.1
375.166	10149.3
378.541	10030.2
381.916	9940.23
385.291	9833.2
388.665	9722.43
392.04	9606.33
395.415	9467.1
398.79	9363.8
402.165	9229.04
405.539	9128.49
408.914	8992.67
412.289	8878.78
415.664	8784.58
419.039	8675.78
422.413	8590.65
425.788	8484.83
429.163	8401.58
432.538	8317.77
435.913	8251.56
439.288	8178.3
442.662	8117.6
446.037	8067.94
449.412	8002.99
452.787	7948.05
456.162	7889.61
459.536	7851.72
462.911	7813.05
466.286	7755.87
469.661	7709.68
473.036	7678.75
476.411	7646.41
479.785	7612.67
483.16	7576.72
486.535	7536.09
489.91	7508.68
493.285	7463.92
496.659	7431.37
500.034	7414.85
503.409	7405.75
506.784	7382.28
510.159	7372.79
513.534	7366.99
516.908	7354.17
520.283	7334.94
523.658	7318.14
527.033	7310.61
530.408	7307
533.782	7286.04
537.157	7282.16
540.532	7274.47
543.907	7274.35
547.282	7265.52
550.656	7272.17
554.031	7261.61
557.406	7248.33
560.781	7239.21
564.156	7211.02
567.53	7198.27
570.905	7164.78
574.28	7138.85
577.655	7111.42
581.03	7081
584.405	7068.99
587.779	7018.82
591.154	6966.18
594.529	6879.86
597.904	6818.31
601.279	6766.74
604.654	6693.76
608.028	6627.14
611.403	6557.42
614.778	6502.16
618.153	6405.1
621.528	6331.01
624.902	6239.15
628.277	6162.24
631.652	6063.66
635.027	5984.01
638.402	5867.91
641.776	5786.13
645.151	5689.06
648.526	5582.17
651.901	5474.95
655.276	5378.72
658.65	5256.32
662.025	5146.82
665.4	5044.48
668.775	4933.47
672.15	4825.21
675.525	4722.26
678.899	4605.28
682.274	4500.86
685.649	4387.41
689.024	4289.52
692.399	4182.57
695.774	4082.58
699.148	3979.14
702.523	3883.23
705.898	3786.75
709.273	3683.85
712.648	3592.65
716.022	3496.13
719.397	3426.36
722.772	3337.72
726.147	3259.78
729.522	3197.97
732.896	3116
736.271	3045.65
739.646	2988.41
743.021	2923.13
746.396	2864.91
749.77	2821.7
753.145	2763.59
756.52	2717.68
759.895	2671.39
763.27	2639.94
766.645	2604.68
770.019	2561.49
773.394	2538.34
776.769	2517.34
780.144	2481.66
783.519	2455.73
786.894	2426.22
790.268	2412.47
793.643	2390.01
797.018	2366.99
800.393	2336.82
803.768	2310.07
807.142	2283.81
810.517	2251.2
813.892	2207.38
817.267	2176.9
820.642	2139.09
824.016	2089.01
827.391	2044.48
830.766	2003.02
834.141	1954.31
837.516	1904.91
840.89	1867.89
844.265	1829.61
847.64	1781.22
851.015	1744.76
854.39	1706.97
857.765	1666.67
861.139	1636.08
864.514	1601.92
867.889	1573.45
871.264	1544.78
874.639	1519.61
878.013	1486.45
881.388	1457.65
884.763	1437.96
888.138	1409.29
891.513	1386.56
894.888	1358.97
898.262	1339.12
901.637	1307.41
905.012	1284.61
908.387	1251.4
911.762	1226.48
915.136	1199.19
918.511	1174.38
921.886	1143.23
925.261	1111.42
928.636	1093.37
932.01	1072.91
935.385	1052.4
938.76	1025.28
942.135	1005
945.51	986.282
948.885	968.821
952.259	952.105
955.634	939.531
959.009	926.704
962.384	911.364
965.759	901.163
969.133	884.876
972.508	875.986
975.883	864.34
979.258	853.511
982.633	848.58
986.008	834.742
989.382	837.318
992.757	820.344
996.132	808.483
999.507	796.409
1002.88	789.7
1006.26	779.084
1009.63	773.906
1013.01	757.182
1016.38	753.114
1019.76	741.11
1023.13	738.164
1026.51	729.448
1029.88	725.967
1033.26	711.691
1036.63	711.015
1040.01	704.921
1043.38	697.319
1046.75	691.929
1050.13	683.535
1053.5	686.324
1056.88	674.815
1060.25	673.019
1063.63	663.673
1067	658.626
1070.38	654.78
1073.75	650.582
1077.13	645.347
1080.5	640.578
1083.88	639.882
1087.25	641.439
1090.63	630.576
1094	631.736
1097.38	624.693
1100.75	625.465
1104.13	616.616
1107.5	617.216
1110.88	615.655
1114.25	612.055
1117.62	610.918
1121	612.453
1124.38	606.964
1127.75	608.21
1131.12	605.329
1134.5	608.21
1137.87	604.816
1141.25	610.875
1144.62	607.361
1148	608.683
1151.37	614.327
1154.75	625.375
1158.12	616.482
1161.5	631.118
1164.87	620.088
1168.25	630.346
1171.62	636.973
1175	641.298
1178.37	649.977
1181.75	655.172
1185.12	661.792
1188.5	672.104
1191.87	679.652
1195.25	691.997
1198.62	702.451
1202	715.915
1205.37	730.181
1208.74	742.749
1212.12	758.526
1215.49	773.241
1218.87	786.927
1222.24	811.587
1225.62	826.605
1228.99	841.229
1232.37	864.835
1235.74	895.715
1239.12	913.548
1242.49	938.61
1245.87	967.557
1249.24	994.017
1252.62	1026.68
1255.99	1057.72
1259.37	1088.21
1262.74	1129.02
1266.12	1168.61
1269.49	1206.11
1272.87	1257.9
1276.24	1298.31
1279.62	1342.59
1282.99	1397.53
