Measurement: Raman, 532 nm, unoriented, Raman Data Processed
Mineral: Fergusonite-(Ce)
Rruff sample: R110050
Ideal chemistry: Ce^3+^Nb^5+^O_4_0.3H_2_O
Locality: Mount Malosa, Zomba District, Malawi
Source: Donald M Doell
Description: Brown prismatic crystals on microcline, associated with zircon
Raman shift (cm-1)	intensity
194.463	3599.27
197.356	3842.36
200.249	3950.81
203.141	4007.1
206.034	4047.33
208.927	4150.3
211.819	4271.35
214.712	4377.13
217.605	4443.64
220.497	4463.32
223.39	4469.82
226.283	4476.06
229.175	4496.66
232.068	4497.1
234.961	4512.16
237.854	4530.11
240.746	4541.49
243.639	4529.55
246.532	4511.02
249.424	4477.62
252.317	4478.6
255.21	4472.07
258.103	4468.1
260.995	4471.52
263.888	4458.42
266.781	4463.82
269.673	4467.33
272.566	4481.71
275.459	4496.21
278.351	4517.36
281.244	4530.7
284.137	4553.71
287.029	4582.26
289.922	4616.17
292.815	4644.67
295.708	4671.84
298.6	4717.64
301.493	4751.88
304.386	4811.22
307.278	4849.64
310.171	4921.5
313.064	5001.48
315.957	5090.44
318.849	5161.98
321.742	5248.55
324.635	5360.29
327.527	5476.31
330.42	5595.81
333.313	5731.19
336.205	5864.56
339.098	6017.55
341.991	6172.72
344.884	6330.83
347.776	6514.51
350.669	6679.41
353.562	6852.65
356.454	7021.57
359.347	7200.28
362.24	7382.38
365.132	7570.27
368.025	7755.82
370.918	7914.6
373.81	8054.52
376.703	8178.25
379.596	8247.89
382.489	8283.57
385.381	8300.74
388.274	8346.47
391.167	8392.45
394.059	8469.08
396.952	8530.21
399.845	8624.73
402.738	8699.79
405.63	8812.29
408.523	8914.98
411.416	9079.48
414.308	9234.99
417.201	9408.75
420.094	9593.39
422.986	9777.21
425.879	9867.04
428.772	9908.09
431.664	9760.69
434.557	9575.78
437.45	9371.43
440.343	9170.81
443.235	9030.1
446.128	8904.72
449.021	8863.02
451.913	8808.52
454.806	8766.9
457.699	8749.16
460.591	8736.27
463.484	8720.47
466.377	8688
469.27	8674.98
472.162	8644.75
475.055	8589.57
477.948	8499.55
480.84	8401.65
483.733	8287.08
486.626	8143.84
489.519	8019.25
492.411	7887.02
495.304	7756.65
498.197	7628.64
501.089	7515.17
503.982	7398.1
506.875	7258.75
509.767	7143.94
512.66	7040.66
515.553	6942.65
518.446	6806.66
521.338	6704.7
524.231	6604.28
527.124	6509.27
530.016	6402.29
532.909	6310.18
535.802	6233.46
538.694	6136.93
541.587	6035.12
544.48	5936.65
547.372	5855.64
550.265	5793.51
553.158	5720.51
556.051	5644.86
558.943	5592.93
561.836	5525.64
564.729	5463.4
567.621	5423.25
570.514	5390.57
573.407	5355.47
576.299	5313.47
579.192	5283.28
582.085	5276.74
584.978	5253.1
587.87	5245.13
590.763	5239.81
593.656	5234.54
596.548	5229.95
599.441	5254.56
602.334	5244.75
605.226	5255.32
608.119	5276.86
611.012	5295.86
613.905	5321.69
616.797	5369.35
619.69	5423.92
622.583	5468.08
625.475	5503.09
628.368	5565.32
631.261	5623.81
634.154	5694.5
637.046	5768.77
639.939	5832.15
642.832	5942.73
645.724	6029.64
648.617	6140.03
651.51	6241.07
654.402	6361.34
657.295	6468.8
660.188	6580.1
663.081	6680.27
665.973	6773.11
668.866	6886.52
671.759	6982.66
674.651	7108.6
677.544	7215.09
680.437	7313.99
683.329	7423.9
686.222	7549.32
689.115	7703.74
692.008	7840.45
694.9	7983.97
697.793	8111.99
700.686	8287.27
703.578	8454.75
706.471	8655.24
709.364	8843.47
712.256	9048.54
715.149	9236.58
718.042	9456.46
720.934	9655.52
723.827	9858.02
726.72	10005.2
729.613	10168.2
732.505	10280.5
735.398	10411.6
738.291	10512.5
741.183	10568.2
744.076	10677
746.969	10776.9
749.861	10806
752.754	10850.3
755.647	10880.3
758.54	10935.4
761.432	11021.4
764.325	11105
767.218	11199.4
770.11	11258.7
773.003	11339.7
775.896	11354
778.788	11377
781.681	11320.1
784.574	11272.9
787.467	11197.6
790.359	11159.8
793.252	11076.8
796.145	10960.3
799.037	10828.4
801.93	10693.8
804.823	10561.8
807.716	10468.3
810.608	10317.9
813.501	10190.5
816.394	10054.8
819.286	9929.61
822.179	9803.76
825.072	9610.08
827.964	9426.7
830.857	9228.18
833.75	9037.45
836.643	8860.41
839.535	8691
842.428	8503.66
845.321	8312.7
848.213	8106.9
851.106	7885.81
853.999	7699.92
856.891	7519.15
859.784	7339.09
862.677	7150.4
865.569	6968.92
868.462	6787.44
871.355	6623.22
874.248	6475.21
877.14	6335.51
880.033	6172.24
882.926	6026.75
885.818	5889.88
888.711	5776.25
891.604	5665.92
894.496	5553.09
897.389	5438.05
900.282	5349.9
903.175	5239.44
906.067	5141.16
908.96	5061.55
911.853	4960.9
914.745	4871.57
917.638	4799.13
920.531	4724.2
923.423	4637.5
926.316	4552.62
929.209	4483.66
932.102	4409.31
934.994	4343.57
937.887	4270.83
940.78	4192.99
943.672	4118.59
946.565	4062.04
949.458	3984.16
952.351	3909.78
955.243	3826.72
958.136	3760.95
961.029	3709.15
963.921	3654.97
966.814	3588.75
969.707	3538.4
972.599	3477.2
975.492	3423.53
978.385	3372.39
981.278	3304.77
984.17	3251.91
987.063	3207.36
989.956	3160.33
992.848	3108.41
995.741	3049.66
998.634	3006.59
1001.53	2969.03
1004.42	2915.91
1007.31	2880.79
1010.21	2844.11
1013.1	2806.09
1015.99	2762.61
1018.88	2720.75
1021.77	2688.18
1024.67	2654.46
1027.56	2617.63
1030.45	2586.55
1033.35	2552.96
1036.24	2522.02
1039.13	2488.01
1042.02	2462.63
1044.92	2436.49
1047.81	2411.36
1050.7	2380.72
1053.6	2354.76
1056.49	2331.69
1059.38	2304.65
1062.27	2286.33
1065.17	2267.09
1068.06	2243.87
1070.95	2227.05
1073.84	2201.49
1076.74	2186.95
1079.63	2175.25
1082.52	2153.39
1085.41	2135.6
1088.31	2123.97
1091.2	2103.51
1094.09	2084.88
1096.99	2073.86
1099.88	2056.58
1102.77	2037.03
1105.66	2033.02
1108.56	2011.16
1111.45	2002.39
1114.34	1987.45
1117.23	1983.18
1120.13	1969.18
1123.02	1963.15
1125.91	1945.86
1128.81	1935.38
1131.7	1922.56
1134.59	1912.17
1137.48	1912.13
1140.38	1888.57
1143.27	1887.18
1146.16	1876.12
1149.05	1875.56
1151.95	1858.81
1154.84	1846.18
1157.73	1833.99
1160.62	1827.82
1163.52	1828.45
1166.41	1817.64
1169.3	1809.86
1172.2	1815.96
1175.09	1805.46
1177.98	1796.41
1180.87	1789.51
1183.77	1778.69
1186.66	1766.87
1189.55	1756.97
1192.44	1753.3
1195.34	1755.8
1198.23	1742.29
1201.12	1744.83
1204.02	1739.82
1206.91	1740.39
1209.8	1736.36
1212.69	1732.02
1215.59	1721.76
1218.48	1718.23
1221.37	1717.65
1224.26	1710.82
1227.16	1708.25
1230.05	1701.14
1232.94	1705.43
1235.84	1695.91
1238.73	1703.05
1241.62	1694.43
1244.51	1698.76
1247.41	1707.84
1250.3	1688.29
1253.19	1686.68
1256.08	1682.84
1258.98	1683.34
1261.87	1685.5
1264.76	1680.57
1267.65	1676.59
1270.55	1676.37
1273.44	1668.55
1276.33	1664.59
1279.23	1667.06
1282.12	1671.68
1285.01	1659.13
1287.9	1656.13
1290.8	1660.72
1293.69	1656.25
1296.58	1651.29
1299.47	1655.89
