Measurement: Raman, 780 nm, unoriented, Raman Data Processed
Mineral: Fernandinite
Rruff sample: R070694
Ideal chemistry: (Ca,Na,K)_0.9_(V^5+^,V^4+^,Fe^2+^,Ti^4+^)_8_O_20_4H_2_O
Locality: Ragra mine, Junin, Cerro de Pasco, Pasco, Peru
Source: James Shigley
Description: Yellowish green to dark green submetallic granules (some platy)
Raman shift (cm-1)	intensity
108.804	0
111.696	1.52173
114.589	84.1985
117.482	1.47278
120.374	121.277
123.267	184.177
126.16	18.1775
129.053	71.3525
131.945	71.3738
134.838	59.8596
137.731	73.3401
140.623	92.516
143.516	120.022
146.409	94.4432
149.302	95.0674
152.194	121.272
155.087	47.0637
157.98	81.1191
160.872	50.0707
163.765	108.246
166.658	15.2794
169.55	72.2787
172.443	14.8522
175.336	67.3075
178.228	112.295
181.121	97.5341
184.014	51.5759
186.907	79.7738
189.799	178.865
192.692	105.621
195.585	88.7159
198.477	21.4383
201.37	121.481
204.263	92.5599
207.155	92.8246
210.048	118.509
212.941	100.419
215.834	116.887
218.726	72.0615
221.619	163.693
224.512	66.7213
227.404	88.8435
230.297	135.89
233.19	10.328
236.083	119.566
238.975	21.7675
241.868	43.3962
244.761	73.3656
247.653	119.977
250.546	88.4416
253.439	89.1854
256.331	97.4664
259.224	106.963
262.117	141.499
265.01	47.0368
267.902	70.3812
270.795	36.8637
273.688	91.9924
276.58	85.1346
279.473	119.394
282.366	56.0057
285.258	100.036
288.151	62.6022
291.044	106.473
293.937	98.7145
296.829	109.364
299.722	49.587
302.615	16.9979
305.507	50.953
308.4	43.4252
311.293	2.80341
314.185	66.2357
317.078	76.7477
319.971	12.5715
322.863	69.4345
325.756	26.7988
328.649	50.67
331.542	34.8146
334.434	92.4361
337.327	31.7882
340.22	61.287
343.112	61.8815
346.005	46.1572
348.898	39.8308
351.791	115.35
354.683	27.4806
357.576	80.8922
360.469	7.10168
363.361	88.2216
366.254	57.5485
369.147	15.9745
372.039	39.9697
374.932	53.8699
377.825	67.8967
380.717	25.3763
383.61	49.7246
386.503	10.3427
389.396	8.79944
392.288	43.9402
395.181	43.2157
398.074	64.5288
400.966	49.5452
403.859	16.2054
406.752	10.9079
409.644	19.577
412.537	59.0172
415.43	14.7184
418.323	136.213
421.215	51.6016
424.108	51.5902
427.001	7.91748
429.893	32.9634
432.786	32.8195
435.679	20.4717
438.572	35.3718
441.464	64.2299
444.357	190.63
447.25	84.392
450.142	141.418
453.035	82.0716
455.928	126.207
458.82	95.0656
461.713	114.71
464.606	122.418
467.498	84.0123
470.391	135.348
473.284	83.8891
476.177	59.7763
479.069	142.2
481.962	43.0816
484.855	29.0085
487.747	85.7369
490.64	69.6182
493.533	89.0286
496.425	86.4291
499.318	40.8762
502.211	63.6744
505.104	44.438
507.996	79.5223
510.889	69.0735
513.782	15.4797
516.674	57.3672
519.567	28.9689
522.46	72.3301
525.352	75.2971
528.245	77.7878
531.138	49.0611
534.031	61.6277
536.923	46.3937
539.816	40.2463
542.709	47.489
545.601	38.6794
548.494	97.8481
551.387	61.3013
554.279	49.8486
557.172	76.3705
560.065	127.734
562.958	24.8497
565.85	19.0288
568.743	41.3773
571.636	35.1334
574.528	40.0336
577.421	110.235
580.314	55.2195
583.207	13.3707
586.099	76.1105
588.992	86.6896
591.885	82.6003
594.777	83.7734
597.67	68.7525
600.563	51.814
603.455	97.306
606.348	66.1154
609.241	56.4873
612.134	44.9434
615.026	28.3331
617.919	71.5649
620.812	161.431
623.704	5.65796
626.597	80.1395
629.49	74.1169
632.382	49.0569
635.275	29.1711
638.168	54.7825
641.061	52.7143
643.953	76.7216
646.846	40.1771
649.739	105.616
652.631	85.0794
655.524	44.4134
658.417	44.5499
661.309	40.4562
664.202	32.382
667.095	23.5549
669.987	6.21265
672.88	28.8791
675.773	34.9432
678.666	15.1173
681.558	20.7914
684.451	71.9222
687.344	78.2088
690.236	76.4372
693.129	3.41174
696.022	78.5288
698.915	27.167
701.807	28.0799
704.7	29.6197
707.593	33.3252
710.485	44.8535
713.378	89.7534
716.271	48.1171
719.163	89.346
722.056	53.3853
724.949	39.8803
727.842	27.2192
730.734	57.7899
733.627	123.828
736.52	27.6299
739.412	17.3812
742.305	62.1653
745.198	29.6823
748.091	47.8413
750.983	26.0289
753.876	34.2976
756.769	34.5476
759.661	95.8112
762.554	55.4083
765.447	30.4522
768.339	15.9382
771.232	65.468
774.125	6.65643
777.018	22.1505
779.91	52.9743
782.803	53.8868
785.696	113.261
788.588	6.38971
791.481	53.1669
794.374	79.4321
797.266	9.31641
800.159	32.9051
803.052	68.9665
805.944	23.1244
808.837	56.1781
811.73	72.0748
814.623	68.3509
817.515	12.5684
820.408	84.5639
823.301	16.7621
826.193	50.9833
829.086	26.0163
831.979	2.44678
834.871	40.4634
837.764	53.8487
840.657	54.3019
843.55	66.2072
846.442	40.9222
849.335	73.9905
852.228	24.7114
855.12	101.146
858.013	56.6388
860.906	33.8931
863.798	52.4213
866.691	68.7004
869.584	68.6438
872.477	54.7965
875.369	16.3429
878.262	68.5569
881.155	63.2753
884.047	84.0535
886.94	52.6003
889.833	21.3098
892.726	49.9067
895.618	59.8644
898.511	24.3361
901.404	12.73
904.296	7.99707
907.189	36.5391
910.082	54.9297
912.974	2.20129
915.867	82.5336
918.76	11.8184
921.653	74.9293
924.545	38.3314
927.438	12.444
930.331	3.36572
933.223	16.6464
936.116	41.8948
939.009	30.9669
941.901	68.4021
944.794	110.583
947.687	13.2303
950.58	55.2899
953.472	49.7679
956.365	118.587
959.258	13.2649
962.15	42.3232
965.043	19.8709
967.936	34.6948
970.828	64.7377
973.721	71.1045
976.614	45.3697
979.506	76.4616
982.399	12.0609
985.292	5.38635
988.185	14.4377
991.077	36.8992
993.97	75.2892
996.863	42.421
999.755	16.4324
1002.65	25.452
1005.54	57.8553
1008.43	45.4675
1011.33	8.46356
1014.22	76.1831
1017.11	67.5888
1020	17.8928
1022.9	37.9138
1025.79	68.9899
1028.68	18.9041
1031.58	79.0271
1034.47	97.4896
1037.36	10.8864
1040.25	28.6149
1043.15	16.9129
1046.04	59.8721
1048.93	5.63922
1051.82	29.1014
1054.72	21.3406
1057.61	49.9192
1060.5	3.24255
1063.39	60.2682
1066.29	30.8629
1069.18	31.3611
1072.07	50.171
1074.97	28.4934
1077.86	47.7062
1080.75	19.271
1083.64	61.1648
1086.54	35.9192
1089.43	28.0471
1092.32	21.4088
1095.21	49.5986
1098.11	28.1821
1101	23.4596
1103.89	80.114
1106.79	53.8512
1109.68	54.5489
1112.57	103.685
1115.46	34.6276
1118.36	46.391
1121.25	33.6574
1124.14	38.8048
1127.03	11.7433
1129.93	2.92749
1132.82	17.2134
1135.71	73.2207
1138.61	78.3501
1141.5	22.7672
1144.39	81.4559
1147.28	34.0776
1150.18	27.7698
1153.07	15.9146
1155.96	59.0221
1158.85	36.8998
1161.75	81.7089
1164.64	97.1073
1167.53	104.415
1170.42	65.4396
1173.32	83.2924
1176.21	9.66565
1179.1	41.8616
1181.99	66.7289
1184.89	31.1625
1187.78	23.1229
1190.67	15.2692
1193.57	0
