Measurement: Raman, 532 nm, unoriented, Raman Data Processed
Mineral: Fernandinite
Rruff sample: R070694
Ideal chemistry: (Ca,Na,K)_0.9_(V^5+^,V^4+^,Fe^2+^,Ti^4+^)_8_O_20_4H_2_O
Locality: Ragra mine, Junin, Cerro de Pasco, Pasco, Peru
Source: James Shigley
Description: Yellowish green to dark green submetallic granules (some platy)
Raman shift (cm-1)	intensity
141.739	0
144.632	20.4488
147.525	157.611
150.417	14.3538
153.31	188.749
156.203	54.3871
159.096	20.0228
161.988	19.2787
164.881	51.9594
167.774	78.3862
170.666	71.5337
173.559	75.7335
176.452	39.8285
179.345	138.648
182.237	112.273
185.13	111.33
188.023	80.5333
190.915	93.9198
193.808	58.2368
196.701	99.3258
199.593	19.9659
202.486	56.5797
205.379	66.8579
208.272	15.8867
211.164	6.83087
214.057	23.494
216.95	43.2188
219.842	96.5541
222.735	17.6356
225.628	72.8419
228.52	0.964935
231.413	58.9688
234.306	2.33935
237.198	72.7601
240.091	35.6098
242.984	51.7923
245.876	56.273
248.769	65.4221
251.662	86.0986
254.555	21.9495
257.447	50.773
260.34	70.9047
263.233	104.699
266.125	4.37216
269.018	52.0616
271.911	70.1141
274.803	78.8759
277.696	44.7587
280.589	40.54
283.482	102.544
286.374	31.9756
289.267	57.8379
292.16	6.55633
295.052	52.6018
297.945	80.3322
300.838	1.89526
303.731	50.9909
306.623	119.699
309.516	42.5193
312.409	66.3374
315.301	49.649
318.194	51.9155
321.087	28.4362
323.979	98.7692
326.872	1.42807
329.765	64.0346
332.658	54.807
335.55	13.1717
338.443	30.6845
341.336	87.5911
344.228	67.7158
347.121	68.6693
350.014	8.38348
352.906	81.7024
355.799	37.1603
358.692	29.7102
361.584	56.4988
364.477	27.9807
367.37	60.1736
370.262	26.0605
373.155	75.309
376.048	22.0032
378.941	34.5453
381.833	64.3954
384.726	55.5008
387.619	60.7553
390.511	14.3121
393.404	41.6421
396.297	20.1746
399.19	11.0786
402.082	68.8206
404.975	43.1304
407.868	111.112
410.76	24.4506
413.653	32.4912
416.546	6.77325
419.438	53.4305
422.331	25.6551
425.224	18.5386
428.116	52.9055
431.009	4.8154
433.902	126.097
436.795	4.63596
439.687	65.9353
442.58	38.5382
445.473	64.9803
448.365	75.3444
451.258	60.8961
454.151	18.6466
457.043	72.3417
459.936	126.316
462.829	63.2932
465.722	30.6565
468.614	110.403
471.507	52.3169
474.4	71.0156
477.292	69.3805
480.185	43.6161
483.078	16.2048
485.971	94.3585
488.863	55.43
491.756	57.2279
494.649	46.9265
497.541	29.2924
500.434	88.5866
503.327	0.887054
506.219	50.3308
509.112	6.42691
512.005	18.8906
514.898	37.078
517.79	60.7339
520.683	30.2302
523.576	47.9345
526.468	40.6063
529.361	27.5006
532.254	56.9125
535.146	21.3478
538.039	73.1651
540.932	47.582
543.824	12.6515
546.717	33.9882
549.61	65.3471
552.503	111.665
555.395	57.441
558.288	71.7651
561.181	30.746
564.073	63.2451
566.966	71.5691
569.859	64.6229
572.751	75.0016
575.644	20.2502
578.537	29.015
581.429	50.589
584.322	47.4552
587.215	70.6657
590.108	58.068
593	42.7321
595.893	75.3437
598.786	73.489
601.678	56.5465
604.571	19.5027
607.464	30.2976
610.356	86.8834
613.249	128.575
616.142	7.21634
619.035	61.0028
621.927	28.7834
624.82	51.96
627.713	16.8829
630.605	57.513
633.498	14.9322
636.391	59.3716
639.284	2.97476
642.176	84.8475
645.069	89.8919
647.962	16.1377
650.854	56.8531
653.747	49.5829
656.64	12.0934
659.532	32.3294
662.425	32.9062
665.318	14.256
668.21	19.1872
671.103	30.2212
673.996	54.4703
676.889	28.0944
679.781	30.2248
682.674	140.413
685.567	90.526
688.459	34.2085
691.352	8.30164
694.245	16.7803
697.138	38.2185
700.03	31.83
702.923	45.9186
705.816	61.0799
708.708	79.3731
711.601	23.7855
714.494	61.8334
717.386	53.8817
720.279	18.2965
723.172	43.5277
726.064	16.7707
728.957	90.0285
731.85	19.9127
734.743	0.078156
737.635	46.3704
740.528	56.8187
743.421	57.0531
746.313	9.97183
749.206	30.918
752.099	87.8531
754.991	87.2553
757.884	32.8329
760.777	59.879
763.669	33.3152
766.562	71.3375
769.455	26.9576
772.348	20.9772
775.24	17.5794
778.133	56.8811
781.026	50.0662
783.918	46.8437
786.811	33.1863
789.704	67.8479
792.596	55.0718
795.489	27.2953
798.382	62.6709
801.275	53.629
804.167	20.6168
807.06	63.6662
809.953	59.4489
812.845	93.579
815.738	18.4337
818.631	19.2299
821.524	55.6766
824.416	50.374
827.309	23.5273
830.202	63.7779
833.094	36.8503
835.987	28.4337
838.88	19.172
841.772	41.5397
844.665	43.1278
847.558	26.9189
850.45	38.3514
853.343	80.4291
856.236	77.7792
859.129	18.2706
862.021	43.5072
864.914	43.3248
867.807	59.9022
870.699	47.1081
873.592	4.69373
876.485	16.1094
879.377	27.9389
882.27	66.6012
885.163	28.0772
888.056	17.6361
890.948	41.1135
893.841	32.545
896.734	18.5226
899.626	20.23
902.519	5.88272
905.412	0.042206
908.304	53.889
911.197	7.32715
914.09	42.9405
916.982	19.8355
919.875	40.342
922.768	12.3226
925.661	30.3725
928.553	16.4652
931.446	51.4872
934.339	55.1398
937.231	21.0704
940.124	14.7195
943.017	30.0187
945.909	29.7418
948.802	14.9306
951.695	30.2378
954.588	58.4113
957.48	38.1279
960.373	16.4329
963.266	10.4442
966.158	62.3068
969.051	34.0877
971.944	40.6272
974.837	92.9122
977.729	66.67
980.622	84.786
983.515	20.5477
986.407	28.6071
989.3	25.95
992.193	55.139
995.085	72.8817
997.978	28.2222
1000.87	24.3352
1003.76	18.7132
1006.66	54.9314
1009.55	84.3007
1012.44	12.8832
1015.33	76.9681
1018.23	56.2479
1021.12	35.8357
1024.01	33.5611
1026.9	44.9421
1029.8	9.17627
1032.69	69.2196
1035.58	74.3478
1038.48	60.4066
1041.37	73.1691
1044.26	23.507
1047.15	70.6854
1050.05	8.74274
1052.94	0.779419
1055.83	30.4965
1058.72	52.4755
1061.62	14.2678
1064.51	20.4474
1067.4	15.9895
1070.3	29.168
1073.19	67.5059
1076.08	48.882
1078.97	30.0655
1081.87	45.9106
1084.76	5.1022
1087.65	52.6913
1090.54	38.1693
1093.44	43.6998
1096.33	35.2786
1099.22	29.244
1102.12	12.0949
1105.01	23.2493
1107.9	70.2476
1110.79	11.3057
1113.69	48.5774
1116.58	10.8233
1119.47	31.7802
1122.36	17.0186
1125.26	0.239685
1128.15	36.2021
1131.04	65.7681
1133.93	60.0049
1136.83	32.8987
1139.72	48.3039
1142.61	16.4709
1145.51	52.1168
1148.4	21.9515
1151.29	75.3929
1154.18	16.7753
1157.08	0.600891
1159.97	12.7933
1162.86	1.51184
1165.76	9.6355
1168.65	21.588
1171.54	60.5874
1174.43	63.5536
1177.33	30.0004
1180.22	45.2532
1183.11	42.2936
1186	38.7555
1188.9	46.1372
1191.79	2.14398
1194.68	1.75909
1197.57	71.9179
1200.47	56.7474
1203.36	29.0828
1206.25	66.4039
1209.14	63.3579
1212.04	54.8144
1214.93	79.9473
1217.82	78.1344
1220.72	80.3917
1223.61	38.9746
1226.5	35.0659
1229.39	30.1593
