Measurement: Raman, 532 nm, unoriented, Raman Data Processed
Mineral: Ferri-pedrizite
Rruff sample: R070344
Ideal chemistry: NaLi_2_[Fe^3+^_2_Mg_2_Li]Si_8_O_22_(OH)_2_
Locality: east Pedriza Massif, Sierra de Guadarrama, Spain
Source: Michael Scott
Description: Black bladed crystals
Measured chemistry: (Na_0.78_[box]_0.10_Ca_0.06_K_0.06_)_Σ=1_Li_2.00_[Fe^3+^_2.52_Mg_0.99_Fe^2+^_0.20_Al_0.16_Mn_0.07_Ti_0.03_Cr_0.03_Li_1.00_]Si_8.00_O_22_((OH)_1.27_F_0.73_)_Σ=2_; H_2_O from stoichiometry after deducting F; Li_2_O by difference
Raman shift (cm-1)	intensity
180.035	0
182.928	72.2617
185.821	86.0693
188.713	196.136
191.606	200.185
194.499	297.578
197.391	287.211
200.284	336.738
203.177	261.392
206.07	292.81
208.962	226.838
211.855	249.731
214.748	173.919
217.64	175.185
220.533	166.322
223.426	126.276
226.318	143.102
229.211	210.599
232.104	168.422
234.996	224.73
237.889	169.686
240.782	95.7676
243.675	182.035
246.567	167.164
249.46	135.276
252.353	205.572
255.245	38.6172
258.138	156.006
261.031	223.924
263.923	121.598
266.816	156.484
269.709	126.529
272.602	65.1406
275.494	146.572
278.387	60.2988
281.28	120.863
284.173	74.7324
287.065	44.9668
289.958	163.254
292.851	101.734
295.743	66.957
298.636	23.123
301.529	105.477
304.421	20.459
307.314	5.03125
310.207	33.7012
313.099	7.43945
315.992	48.0703
318.885	30.3242
321.778	11.5859
324.67	129.922
327.563	57.4062
330.456	102.231
333.348	61.5625
336.241	51.7266
339.134	69.6719
342.026	47.8008
344.919	123.736
347.812	115.115
350.705	31.7734
353.597	114.121
356.49	70.166
359.383	177.81
362.275	75.6035
365.168	126.928
368.061	118.611
370.954	123.674
373.846	240.836
376.739	173.791
379.632	23.6816
382.524	175.244
385.417	208.172
388.31	90.2754
391.202	149.053
394.095	206.518
396.988	102.783
399.88	39.2383
402.773	123.049
405.666	179.693
408.559	86.3359
411.451	85.207
414.344	119.592
417.237	117.08
420.129	101.006
423.022	13.4766
425.915	74.7871
428.808	37.5312
431.7	5.45117
434.593	14.3477
437.486	35.8105
440.378	85.7207
443.271	143.266
446.164	5.75
449.056	184.822
451.949	299.625
454.842	340.703
457.735	378.723
460.627	541.057
463.52	634.721
466.413	502.697
469.305	259.912
472.198	190.137
475.091	236.871
477.983	139.383
480.876	118.603
483.769	134.797
486.661	64.4688
489.554	25.5078
492.447	62.6309
495.34	49.3379
498.232	55.6348
501.125	77.7031
504.018	34.3398
506.911	39.9531
509.803	32.0977
512.696	78.0215
515.589	45.1016
518.481	78.1269
521.374	198.934
524.267	97.4316
527.159	209.371
530.052	167.557
532.945	278.406
535.837	273.797
538.73	417.359
541.623	349.744
544.516	324.736
547.408	361.537
550.301	337.365
553.194	220.518
556.086	242.188
558.979	187.4
561.872	130.859
564.764	226.389
567.657	219.305
570.55	202.625
573.443	321.461
576.335	225.705
579.228	153.791
582.121	292.281
585.013	148.106
587.906	242.924
590.799	38.8613
593.692	107.822
596.584	15.9883
599.477	32.2852
602.37	22.6875
605.262	72.5723
608.155	25.6934
611.048	88.459
613.94	21.8633
616.833	72.7598
619.726	11.1055
622.619	82.9141
625.511	17.7051
628.404	157.359
631.297	90.6016
634.189	173.516
637.082	204.631
639.975	220.49
642.867	264.775
645.76	297.631
648.653	259.4
651.545	278.906
654.438	357.666
657.331	476.502
660.224	386.84
663.116	460.352
666.009	406.438
668.902	401.916
671.794	526.463
674.687	505.955
677.58	380.363
680.472	358.744
683.365	457.699
686.258	399.176
689.151	249.514
692.043	275.576
694.936	239.783
697.829	114.42
700.721	36.5
703.614	217.062
706.507	204.953
709.399	2.91602
712.292	12.4395
715.185	84.5606
718.078	83.4356
720.97	62.6172
723.863	116.272
726.756	99.625
729.648	96.8164
732.541	103.801
735.434	92.7481
738.327	124.982
741.219	107.606
744.112	103.691
747.005	133.861
749.897	140.877
752.79	153.834
755.683	155.935
758.576	58.6934
761.468	86.4902
764.361	152.81
767.254	136.857
770.146	222.51
773.039	209.615
775.932	106.856
778.824	137.992
781.717	94.7109
784.61	45.2891
787.503	81.2715
790.395	28.875
793.288	33.1973
796.181	212.74
799.073	64.1562
801.966	2.62695
804.859	76.9805
807.751	152.096
810.644	101.119
813.537	93.2168
816.429	86.7129
819.322	46.4219
822.215	15.1406
825.108	97.959
828	47.7637
830.893	129.644
833.786	40.3516
836.678	84.0059
839.571	103.094
842.464	42.8242
845.356	171.941
848.249	33.5352
851.142	124.516
854.035	92.4531
856.927	142.113
859.82	168.637
862.713	38.5898
865.605	78.5586
868.498	176.305
871.391	31.0664
874.284	80.2578
877.176	105.348
880.069	66.1172
882.962	88.0508
885.854	176.238
888.747	139.09
891.64	118.43
894.533	23
897.425	189.781
900.318	141.027
903.211	132.652
906.103	105.312
908.996	22.6289
911.889	98.668
914.781	228.981
917.674	161.094
920.567	67.1328
923.46	77.7539
926.352	34.6211
929.245	66.4648
932.138	20.125
935.03	29.2578
937.923	12.9258
940.816	184.363
943.708	85.5312
946.601	190.977
949.494	137.289
952.386	109.621
955.279	239.156
958.172	248.461
961.065	292.785
963.957	313.301
966.85	350.625
969.743	527.641
972.635	513.617
975.528	700.945
978.421	702.84
981.313	612.18
984.206	695.004
987.099	636.801
989.992	509.527
992.884	443.934
995.777	281.434
998.67	188.434
1001.56	156.508
1004.46	155.125
1007.35	64.0312
1010.24	39.0859
1013.13	105.738
1016.03	109.133
1018.92	104.676
1021.81	129.609
1024.7	50.9961
1027.6	2.63281
1030.49	41.1758
1033.38	158.668
1036.28	170.215
1039.17	185.211
1042.06	133.594
1044.95	254.641
1047.85	135.168
1050.74	144.613
1053.63	58.4922
1056.52	141.59
1059.42	55.1875
1062.31	24.6406
1065.2	180.934
1068.09	124.723
1070.99	58.6875
1073.88	158.285
1076.77	201.918
1079.66	129.625
1082.56	85.7656
1085.45	129.789
1088.34	210.062
1091.24	192.922
1094.13	182.695
1097.02	159.941
1099.91	129.191
1102.81	126.004
1105.7	134.406
1108.59	207.481
1111.48	247.266
1114.38	127.766
1117.27	127.512
1120.16	26.3203
1123.06	110.731
1125.95	131.269
1128.84	30.6406
1131.73	138.062
1134.63	77.8789
1137.52	183.918
1140.41	195.769
1143.31	58.4336
1146.2	105.137
1149.09	98.1016
1151.98	46.082
1154.88	21.6562
1157.77	111.18
1160.66	196.707
1163.55	20.6289
1166.45	201.512
1169.34	48.5664
1172.23	135.023
1175.12	100.043
1178.02	158.144
1180.91	75.3281
1183.8	129.594
1186.69	46.9062
1189.59	105.262
1192.48	149.809
1195.37	52.8867
1198.27	65.1836
1201.16	22.2266
1204.05	150.664
1206.94	67.8789
1209.84	231.055
1212.73	173.57
1215.62	139.734
1218.52	13.918
1221.41	112.41
1224.3	66.0977
1227.19	98.7891
1230.09	40.4102
1232.98	106.973
1235.87	163.574
1238.76	254.379
1241.66	187.973
1244.55	144.523
1247.44	205.602
1250.34	34.5117
1253.23	321.207
1256.12	33.7734
1259.01	100.609
1261.91	73.2109
1264.8	232.789
1267.69	68.668
1270.58	138.199
1273.48	110.805
1276.37	52.8359
1279.26	187.004
1282.15	40.4258
1285.05	18.7773
1287.94	187.492
1290.83	2.69141
1293.72	8.52734
