Measurement: Raman, 780 nm, unoriented, Raman Data Processed
Mineral: Ferrisurite
Rruff sample: R060055
Ideal chemistry: Pb^2+^_2.4_Fe^3+^_2_Si_4_O_10_(CO_3_)_1.7_(OH)_3_nH_2_O
Locality: Shirley Ann Claim, Death Valley National Monument, Inyo County, California, USA
Source: Marcus Origlieri
Description: Radial aggregates of green acicular crystals
Raman shift (cm-1)	intensity
150.362	0
153.254	0.005798
156.147	0.77623
159.04	0.724308
161.932	0.849354
164.825	0.754704
167.718	2.72006
170.61	0.578426
173.503	1.18924
176.396	0.277775
179.288	2.44382
182.181	1.10104
185.074	2.12286
187.966	2.09519
190.859	2.84969
193.752	2.9616
196.645	2.07602
199.537	2.59514
202.43	1.30997
205.323	1.23476
208.215	0.560879
211.108	0.709488
214.001	0.252541
216.893	1.12815
219.786	0.146988
222.679	0.733608
225.572	0.437531
228.464	1.27209
231.357	0.293343
234.25	1.92436
237.142	1.39321
240.035	2.30659
242.928	2.03762
245.821	3.05423
248.713	2.32477
251.606	2.87288
254.499	2.53774
257.391	2.38058
260.284	2.36384
263.177	2.07675
266.069	0.792145
268.962	1.86333
271.855	1.04926
274.748	1.41466
277.64	0.093115
280.533	1.85031
283.426	1.7318
286.318	0.472221
289.211	0.623032
292.104	1.94558
294.996	0.105465
297.889	1.20682
300.782	0.570034
303.675	0.803411
306.567	0.103254
309.46	0.396412
312.353	0.273056
315.245	0.076944
318.138	0.642803
321.031	0.138712
323.923	0.18115
326.816	0.693626
329.709	0.195503
332.601	1.09451
335.494	1.57577
338.387	1.03315
341.279	1.87134
344.172	1.03225
347.065	0.897417
349.958	1.61862
352.85	1.593
355.743	2.38567
358.636	1.18056
361.528	1.82451
364.421	1.01084
367.314	1.24508
370.207	1.29674
373.099	2.1166
375.992	0.912281
378.885	1.83376
381.777	1.61632
384.67	1.20856
387.563	2.11651
390.455	0.284441
393.348	1.94225
396.241	1.55544
399.134	1.59559
402.026	0.508068
404.919	0.720726
407.812	1.92308
410.704	0.997482
413.597	0.907757
416.49	0.924845
419.382	0.782936
422.275	0.937101
425.168	1.2845
428.06	0.872875
430.953	1.39664
433.846	0.458643
436.739	0.51195
439.631	0.277504
442.524	0.427332
445.417	0.644163
448.309	0.61244
451.202	0.193577
454.095	0.742014
456.988	0.106037
459.88	0.267235
462.773	0.671835
465.666	0.462452
468.558	0.661575
471.451	0.376293
474.344	0.92577
477.236	0.388136
480.129	0.730259
483.022	0.685698
485.914	0.833076
488.807	0.756611
491.7	1.32953
494.592	0.571644
497.485	2.1196
500.378	1.47054
503.271	1.60542
506.163	0.932941
509.056	1.89745
511.949	1.51818
514.841	1.34171
517.734	1.23532
520.627	0.975172
523.519	1.39491
526.412	2.09582
529.305	2.74457
532.198	3.14995
535.09	3.15142
537.983	1.48921
540.876	1.94638
543.768	2.74522
546.661	2.48993
549.554	2.12964
552.447	1.65835
555.339	3.12409
558.232	2.11267
561.125	2.62101
564.017	2.96975
566.91	3.07067
569.803	1.48484
572.695	1.70938
575.588	2.14436
578.481	1.89941
581.374	0.542669
584.266	1.00691
587.159	0.960297
590.052	0.490067
592.944	0.34347
595.837	0.487997
598.73	0.104956
601.622	0.059717
604.515	0.301678
607.408	0.191986
610.301	0.091217
613.193	0.015707
616.086	0.653236
618.979	0.226547
621.871	0.53299
624.764	0.183201
627.657	0.379711
630.549	0.976309
633.442	0.372926
636.335	1.4458
639.227	0.662769
642.12	0.614714
645.013	0.953184
647.905	0.180461
650.798	0.886956
653.691	0.407319
656.584	0.180282
659.476	1.03104
662.369	0.220325
665.262	0.183414
668.154	0.992249
671.047	0.452351
673.94	0.118073
676.832	0.791816
679.725	1.04183
682.618	0.901511
685.511	1.38489
688.403	1.52468
691.296	0.777377
694.189	1.08857
697.081	0.765374
699.974	1.00248
702.867	0.846843
705.76	1.32331
708.652	1.79075
711.545	1.3307
714.438	0.701185
717.33	0.630297
720.223	0.409863
723.116	0.41927
726.008	1.08851
728.901	0.434729
731.794	0.110839
734.687	1.96596
737.579	1.2981
740.472	0.995551
743.365	1.00191
746.257	0.961006
749.15	0.994224
752.043	0.650462
754.935	0.561188
757.828	1.08215
760.721	1.22352
763.614	0.544851
766.506	0.698112
769.399	0.658471
772.292	1.01005
775.184	0.553737
778.077	0.023557
780.97	0.729988
783.862	1.0997
786.755	0.91849
789.648	0.901552
792.54	1.05629
795.433	0.070411
798.326	0.304028
801.218	0.894847
804.111	0.421799
807.004	0.775741
809.897	0.873451
812.789	0.48277
815.682	0.261571
818.575	0.775532
821.467	0.931902
824.36	0.757868
827.253	0.162803
830.145	1.08927
833.038	0.250862
835.931	0.544353
838.824	0.476216
841.716	1.86256
844.609	0.495042
847.502	1.45609
850.394	1.15536
853.287	0.429279
856.18	0.846414
859.072	1.41469
861.965	0.326699
864.858	0.363705
867.751	0.607173
870.643	0.280438
873.536	1.47493
876.429	0.875455
879.321	0.263049
882.214	0.891756
885.107	1.32252
888	0.163616
890.892	0.536186
893.785	1.15216
896.678	0.507415
899.57	0.63426
902.463	0.804963
905.356	0.671517
908.248	0.269798
911.141	0.117313
914.034	1.39364
916.927	1.18513
919.819	0.529538
922.712	0.713536
925.605	0.62363
928.497	0.059074
931.39	1.04395
934.283	1.3585
937.175	0.386375
940.068	0.237859
942.961	1.42583
945.854	1.04549
948.746	0.856845
951.639	0.985589
954.532	1.38605
957.424	1.00419
960.317	0.933864
963.21	1.49213
966.102	0.534294
968.995	0.257299
971.888	0.962057
974.78	1.0239
977.673	0.960993
980.566	1.22365
983.458	0.375117
986.351	1.53718
989.244	1.23068
992.137	1.16725
995.029	0.548296
997.922	0.675667
1000.82	0.916862
1003.71	0.997341
1006.6	0.717342
1009.49	0.001043
1012.38	0.907338
1015.28	0.587873
1018.17	1.27908
1021.06	1.62116
1023.96	0.026052
1026.85	0.40239
1029.74	0.711262
1032.63	0.832072
1035.53	0.173475
1038.42	0.611163
1041.31	1.09545
1044.2	1.03216
1047.1	0.894222
1049.99	0.660709
1052.88	0.827459
1055.78	1.12959
1058.67	0.637585
1061.56	1.53642
1064.45	0.870615
1067.35	1.75333
1070.24	1.49885
1073.13	1.66097
1076.03	1.38898
1078.92	1.62673
1081.81	1.49931
1084.7	1.21249
1087.6	0.468946
1090.49	1.10782
1093.38	0.791037
1096.27	1.11345
1099.17	0.117567
1102.06	0.633805
1104.95	0.763484
1107.84	1.50165
1110.74	0.359861
1113.63	0.844603
1116.52	1.03602
1119.41	1.20654
1122.31	1.11979
1125.2	2.17118
1128.09	0.965377
1130.99	1.47647
1133.88	0.804399
1136.77	0.850334
1139.66	0.659472
1142.56	1.66935
1145.45	0.983829
1148.34	0.760766
1151.23	0.667119
1154.13	1.44235
1157.02	0.361188
1159.91	0.577456
1162.81	0.274569
1165.7	0.050251
1168.59	0.699169
1171.48	0.677157
1174.38	1.05065
1177.27	0.63753
1180.16	0.380408
1183.06	1.46375
1185.95	0.999459
1188.84	1.34212
1191.73	0.193859
1194.62	0.675771
1197.52	1.11146
1200.41	0.784972
1203.3	0.720392
1206.2	0.699172
1209.09	1.01109
1211.98	0.389214
1214.87	0.428156
1217.77	0.390592
1220.66	0.632236
1223.55	0.496068
1226.44	0.676783
1229.34	0.229497
1232.23	0.730807
1235.12	0.792162
1238.02	1.45528
1240.91	0.145253
1243.8	0.033525
1246.69	0.799665
1249.59	0.875034
1252.48	0.160609
1255.37	1.00706
1258.27	0.231157
1261.16	0.662551
1264.05	1.4731
1266.94	0.668292
1269.84	0.541433
1272.73	1.01689
1275.62	1.06374
1278.51	1.27507
1281.41	0.883218
1284.3	0.63193
