Measurement: Raman, 532 nm, unoriented, Raman Data Processed
Mineral: Ferrierite-Mg
Rruff sample: R070119
Ideal chemistry: [Mg_2_(K,Na)_2_Ca_0.5_](Si_29_Al_7_)O_72_18H_2_O
Locality: Libous, Chomutov, Ústí Region, Bohemia (Böhmen; Boehmen), Czech Republic
Source: Michael Scott
Description: Radiating aggregate of tan colored fibrous crystals associated with calcite
Measured chemistry: (K_0.84_Ca_0.03_[box]_0.13_)_Σ=1_(Mg_1.60_Fe^2+^_0.40_)_Σ=2_Ca_0.50_(Si_30.10_Al_5.90_)O_72_·22.91H_2_O ; H_2_O estimated by difference
Raman shift (cm-1)	intensity
157.895	0
160.788	31.377
163.681	28.3535
166.574	192.367
169.466	436.322
172.359	543.793
175.252	493.055
178.144	450.152
181.037	586.873
183.93	518.682
186.823	596.4
189.715	552.311
192.608	638.764
195.501	736.836
198.393	535.453
201.286	706.676
204.179	582.674
207.071	658.074
209.964	597.49
212.857	568.758
215.75	527.311
218.642	578.338
221.535	531.459
224.428	444.158
227.32	350.57
230.213	416.262
233.106	471.805
235.999	400.654
238.891	224.873
241.784	429.035
244.677	312.674
247.569	325.631
250.462	264.805
253.355	249.674
256.247	259.461
259.14	335.289
262.033	284.91
264.925	244.018
267.818	150.023
270.711	167.299
273.604	141.967
276.496	55.0488
279.389	127.719
282.282	135.748
285.174	47.1973
288.067	89.9688
290.96	155.055
293.853	85.709
296.745	119.394
299.638	18.6641
302.531	56.418
305.423	68.4902
308.316	128.678
311.209	30.5527
314.101	14.4297
316.994	40.2773
319.887	50.9336
322.779	20.498
325.672	57.7598
328.565	49.8633
331.458	33.2676
334.35	20.1035
337.243	56.0527
340.136	27.5684
343.028	63.7617
345.921	207.174
348.814	7.14453
351.707	21.8984
354.599	59.084
357.492	29.9414
360.385	71.8828
363.277	51.3711
366.17	94.8164
369.063	24.7422
371.955	148.812
374.848	45.666
377.741	18.9863
380.634	30.6309
383.526	66.4238
386.419	122.188
389.312	88.582
392.204	34.7695
395.097	49.1152
397.99	66.1055
400.882	155.469
403.775	175.519
406.668	102.092
409.561	89.9062
412.453	2.38281
415.346	12.498
418.239	100.219
421.131	128.67
424.024	60.6426
426.917	144.033
429.81	144.492
432.702	143.357
435.595	64.6016
438.488	132.033
441.38	181.965
444.273	155.086
447.166	102.648
450.058	202.144
452.951	229.731
455.844	187.592
458.736	21.7539
461.629	46.6133
464.522	78.7617
467.415	204.941
470.307	55.8086
473.2	2.17969
476.093	167.295
478.985	145.394
481.878	125.33
484.771	50.0762
487.663	105.686
490.556	148.451
493.449	268.195
496.342	154.531
499.234	108.369
502.127	59.4609
505.02	173.815
507.912	194.277
510.805	78.4531
513.698	10.4961
516.591	199.144
519.483	12.8203
522.376	41.0508
525.269	31.8672
528.161	18.9102
531.054	196.269
533.947	130.996
536.84	40.4336
539.732	24.9102
542.625	92.1836
545.518	91.8828
548.41	61.3633
551.303	22.9023
554.196	47.2305
557.088	15.0352
559.981	147.68
562.874	119.945
565.766	146.242
568.659	15.8047
571.552	89.9688
574.445	122.258
577.337	57.4492
580.23	10.4648
583.123	19.1406
586.015	3.34766
588.908	183.535
591.801	168.18
594.693	37.0234
597.586	114.34
600.479	192.207
603.372	105.633
606.264	179.375
609.157	185.727
612.05	159.988
614.942	68.8047
617.835	203.156
620.728	187.109
623.62	0.84375
626.513	241.113
629.406	268.711
632.299	277.906
635.191	208.269
638.084	227.625
640.977	325.269
643.869	137.519
646.762	317.16
649.655	309.832
652.548	306.418
655.44	387.504
658.333	361.051
661.226	230.316
664.118	239.039
667.011	224.406
669.904	191.141
672.796	152.625
675.689	218.859
678.582	211.723
681.475	284.789
684.367	14.6836
687.26	117.414
690.153	237.559
693.045	219.613
695.938	164.289
698.831	289.703
701.723	159.234
704.616	165.652
707.509	188.84
710.402	97.3086
713.294	53.75
716.187	170.359
719.08	57.7617
721.972	13.0781
724.865	116.121
727.758	17.8242
730.65	219.09
733.543	110.797
736.436	39.1953
739.329	49.4609
742.221	111
745.114	119.488
748.007	5.83594
750.899	227.516
753.792	112.656
756.685	148.559
759.577	108.469
762.47	101.93
765.363	117.43
768.256	115.242
771.148	184.746
774.041	165.426
776.934	77.7773
779.826	136.938
782.719	92.6836
785.612	171.18
788.505	140.121
791.397	184.434
794.29	68.3906
797.183	164.035
800.075	81.5625
802.968	201.055
805.861	4.94922
808.753	61.4023
811.646	92.7578
814.539	282.422
817.432	131.34
820.324	100.082
823.217	4.96094
826.11	42.457
829.002	200.953
831.895	98.4062
834.788	90.4766
837.68	161.836
840.573	97.0898
843.466	172.305
846.359	241.285
849.251	52.9258
852.144	94.8633
855.037	173.769
857.929	116.965
860.822	26
863.715	17.7734
866.607	96.3555
869.5	107.715
872.393	212.117
875.285	167.488
878.178	98.2891
881.071	185.43
883.964	71.5039
886.856	148.266
889.749	81.293
892.642	49.125
895.534	251.086
898.427	111.992
901.32	115.231
904.212	124.438
907.105	5.4375
909.998	172.195
912.891	43.7344
915.783	265.828
918.676	175.137
921.569	85.1016
924.462	198.988
927.354	105.801
930.247	3.77734
933.14	200.426
936.032	266.758
938.925	170.344
941.818	222.285
944.71	131.262
947.603	98.6836
950.496	79.9648
953.389	216.172
956.281	56.7031
959.174	74.6445
962.067	91.3984
964.959	109.953
967.852	145.359
970.745	138.394
973.637	103.613
976.53	202.316
979.423	133.391
982.316	223.324
985.208	241.879
988.101	156.606
990.994	234.019
993.886	278.445
996.779	314.695
999.672	201.238
1002.56	88.0391
1005.46	134.676
1008.35	244.613
1011.24	89.875
1014.13	10.8789
1017.03	157.203
1019.92	107.18
1022.81	1.80078
1025.71	218.254
1028.6	23.7617
1031.49	25.0156
1034.38	137.461
1037.28	117.148
1040.17	181.762
1043.06	192.727
1045.95	93.8047
1048.85	119.602
1051.74	4.67188
1054.63	86.3594
1057.53	255.246
1060.42	184.152
1063.31	75.2539
1066.2	122.371
1069.1	172.004
1071.99	175.664
1074.88	366.481
1077.78	174.172
1080.67	131.34
1083.56	127.644
1086.45	300.266
1089.35	49.7188
1092.24	37.0859
1095.13	75.7617
1098.02	133.453
1100.92	231.055
1103.81	7.44922
1106.7	98.2344
1109.59	271.574
1112.49	34.0625
1115.38	187.231
1118.27	6.01953
1121.16	110.164
1124.06	148.633
1126.95	260.477
1129.84	150.547
1132.74	104.629
1135.63	84.5742
1138.52	49.4453
1141.41	129.883
1144.31	204.75
1147.2	207.492
1150.09	232.652
1152.98	233.762
1155.88	168.336
1158.77	146.332
1161.66	321.328
1164.56	225.945
1167.45	279.641
1170.34	179.738
1173.23	181.988
1176.13	206.231
1179.02	170.332
1181.91	3.84766
1184.81	197.18
1187.7	161.617
1190.59	167.523
1193.48	343.504
1196.38	271.824
1199.27	94.1094
1202.16	189.078
1205.05	235.519
1207.95	113.273
1210.84	124.269
1213.73	234.695
1216.62	244.117
1219.52	173.918
1222.41	182.574
1225.3	19.9766
1228.19	69.0234
1231.09	113.602
1233.98	131.449
1236.87	164.914
1239.77	76.6523
1242.66	97.6992
1245.55	57.3203
1248.44	281.602
1251.34	165.945
1254.23	254.684
1257.12	181.656
1260.02	173.945
1262.91	253.836
1265.8	248.781
1268.69	138.867
1271.59	211.492
1274.48	252.852
1277.37	258.629
1280.26	144.031
1283.16	225.504
1286.05	195.527
1288.94	141.43
1291.84	278.215
1294.73	234.047
1297.62	88.8047
1300.51	132.168
1303.4	6.375
1306.3	129.121
1309.19	54.1133
1312.08	24.3594
