Measurement: Raman, 785 nm, unoriented, Raman Data Processed
Mineral: Ferrierite-Mg
Rruff sample: R070119
Ideal chemistry: [Mg_2_(K,Na)_2_Ca_0.5_](Si_29_Al_7_)O_72_18H_2_O
Locality: Libous, Chomutov, Ústí Region, Bohemia (Böhmen; Boehmen), Czech Republic
Source: Michael Scott
Description: Radiating aggregate of tan colored fibrous crystals associated with calcite
Measured chemistry: (K_0.84_Ca_0.03_[box]_0.13_)_Σ=1_(Mg_1.60_Fe^2+^_0.40_)_Σ=2_Ca_0.50_(Si_30.10_Al_5.90_)O_72_·22.91H_2_O ; H_2_O estimated by difference
Raman shift (cm-1)	intensity
188.324	0
191.217	15.9922
194.11	44.9375
197.002	485.43
199.895	965.961
202.788	1513.31
205.68	1300.28
208.573	1272.14
211.466	1102.77
214.358	935.875
217.251	1253.55
220.144	1516.6
223.037	1513.39
225.929	1620.8
228.822	1490.89
231.715	1426.62
234.607	1516.77
237.5	1588.04
240.393	1786.46
243.286	1866.55
246.178	1973.08
249.071	1651.55
251.964	1327.91
254.856	1430.69
257.749	1396.52
260.642	1480.14
263.534	1309.34
266.427	1286.07
269.32	1128.23
272.212	970.609
275.105	1147.83
277.998	1172.54
280.891	1008.54
283.783	1085.99
286.676	805.164
289.569	1028.08
292.461	774.328
295.354	601.75
298.247	552.367
301.139	321.789
304.032	306.477
306.925	575.156
309.817	367.375
312.71	471.367
315.603	71.875
318.496	164.781
321.388	76.1016
324.281	56.0312
327.174	108.289
330.066	145.656
332.959	463.75
335.852	476.641
338.745	99.2266
341.637	43.2812
344.53	27.4609
347.423	365.102
350.315	47.2188
353.208	328.867
356.101	548.281
358.993	157.383
361.886	117.688
364.779	46.9062
367.671	36.8125
370.564	223.375
373.457	185.633
376.35	206.336
379.242	155.828
382.135	291.672
385.028	48.3359
387.92	97.4297
390.813	228.945
393.706	274.789
396.599	456.055
399.491	251.117
402.384	377.5
405.277	284.023
408.169	129.812
411.062	121.156
413.955	108.156
416.847	288.664
419.74	434.484
422.633	422.484
425.526	291.531
428.418	212.094
431.311	217.305
434.204	332.148
437.096	340.391
439.989	541.258
442.882	602.016
445.774	424.5
448.667	265.781
451.56	119.156
454.452	223.469
457.345	286.586
460.238	120.836
463.131	261.211
466.023	371.492
468.916	367.805
471.809	356.922
474.701	420.859
477.594	201.781
480.487	100.547
483.38	79.8516
486.272	102.766
489.165	205.742
492.058	498.719
494.95	622.242
497.843	203.484
500.736	167.523
503.628	84.375
506.521	220.32
509.414	150.945
512.307	533.461
515.199	374.562
518.092	191.633
520.985	287.352
523.877	186.367
526.77	122.922
529.663	216.297
532.555	127.602
535.448	300.414
538.341	360.102
541.234	382.094
544.126	273.25
547.019	9.28125
549.912	173.961
552.804	14.9531
555.697	16.8594
558.59	204.211
561.482	357.078
564.375	256.742
567.268	266.977
570.16	201.461
573.053	263.961
575.946	72.7344
578.838	237.852
581.731	365.531
584.624	356.727
587.517	451.469
590.409	158.109
593.302	209.039
596.195	288.039
599.087	216.273
601.98	161.773
604.873	289.82
607.765	121.953
610.658	57.6641
613.551	116.352
616.444	217.789
619.336	153.625
622.229	97.3672
625.122	208.133
628.014	222.062
630.907	263.195
633.8	156.398
636.692	143.336
639.585	74.6562
642.478	60.75
645.371	24.9141
648.263	47.2812
651.156	51.1797
654.049	171.938
656.941	186.719
659.834	127.672
662.727	223.828
665.619	226.953
668.512	104.508
671.405	75.4141
674.298	243.32
677.19	180.141
680.083	110.914
682.976	179.719
685.868	193.164
688.761	191.828
691.654	146.602
694.546	366.992
697.439	436.883
700.332	373.625
703.225	334.141
706.117	323.141
709.01	274.547
711.903	434.797
714.795	167.148
717.688	484.312
720.581	345.758
723.473	324.375
726.366	205.414
729.259	350.5
732.152	144.805
735.044	154.883
737.937	301.859
740.83	67.4141
743.722	154.375
746.615	308.602
749.508	397.906
752.4	328.797
755.293	275.43
758.186	29.7422
761.079	197.281
763.971	61.2109
766.864	112.891
769.757	82.7734
772.649	300.727
775.542	97.8281
778.435	82.3906
781.327	60.7344
784.22	145.469
787.113	7
790.005	258.289
792.898	144.453
795.791	327.981
798.684	228.734
801.576	15.5547
804.469	91.0156
807.362	46.543
810.254	411.227
813.147	123.473
816.04	65.0078
818.933	150.047
821.825	175.574
824.718	2.76953
827.611	233.731
830.503	106.785
833.396	91.9336
836.289	164.426
839.181	229.254
842.074	129.394
844.967	202.797
847.86	122.523
850.752	88.457
853.645	51.1523
856.538	108.918
859.43	94.1875
862.323	153.535
865.216	126.488
868.108	203.727
871.001	290.141
873.894	31.5117
876.787	99.5664
879.679	239.414
882.572	68.875
885.465	132.449
888.357	185.176
891.25	316.898
894.143	57.3555
897.035	337.519
899.928	334.113
902.821	136.113
905.713	55.5312
908.606	177.559
911.499	67.8164
914.391	56.9805
917.284	137.211
920.177	315.602
923.07	110.852
925.962	280.141
928.855	177.684
931.748	45.4375
934.64	180.668
937.533	118.668
940.426	320.465
943.318	177.004
946.211	158.496
949.104	145.25
951.997	113.492
954.889	184.402
957.782	111.496
960.675	132.789
963.567	223.473
966.46	132.973
969.353	163.195
972.245	16.625
975.138	278.816
978.031	127.086
980.924	185.445
983.816	225.238
986.709	208.965
989.602	87.9609
992.494	140.422
995.387	56
998.28	184.481
1001.17	222.906
1004.07	231.539
1006.96	316.008
1009.85	256.027
1012.74	154.047
1015.64	287.746
1018.53	97.3867
1021.42	98.2109
1024.31	336.992
1027.21	69.4844
1030.1	83.7852
1032.99	43.4336
1035.88	223.254
1038.78	42.1836
1041.67	62.1211
1044.56	14.3984
1047.46	116.344
1050.35	145.523
1053.24	138.465
1056.13	161.055
1059.03	55.2188
1061.92	177.812
1064.81	109.801
1067.7	67.8594
1070.6	103.656
1073.49	107.613
1076.38	244.805
1079.28	298.031
1082.17	242.836
1085.06	280.859
1087.95	385.027
1090.85	228.633
1093.74	124.59
1096.63	39.9297
1099.52	82.2969
1102.42	224.856
1105.31	87.9297
1108.2	65.332
1111.1	217.836
1113.99	133.922
1116.88	44.9609
1119.77	133.981
1122.67	264.59
1125.56	203.648
1128.45	296.652
1131.34	19.1992
1134.24	24.5977
1137.13	96.8125
1140.02	98.2422
1142.91	77.8164
1145.81	244.258
1148.7	178.164
1151.59	278.211
1154.48	314.949
1157.38	46.3008
1160.27	302.641
1163.16	176.938
1166.06	95.9492
1168.95	264.09
1171.84	362.414
1174.73	195.93
1177.63	361.988
1180.52	329.535
1183.41	402.449
1186.31	242.981
1189.2	304.078
1192.09	582.062
1194.98	290.547
1197.88	341.68
1200.77	389.266
1203.66	359.406
1206.55	342.043
1209.45	473.176
1212.34	267.547
1215.23	299.148
1218.12	276.348
1221.02	314.379
1223.91	378.965
1226.8	84.3711
1229.7	39.7148
1232.59	75.0156
1235.48	220.172
1238.37	0
