Measurement: Raman, 780 nm, unoriented, Raman Data Processed
Mineral: Ferrokentbrooksite
Rruff sample: R110183
Ideal chemistry: Na_15_Ca_6_Fe^2+^_3_Zr^4+^_3_Nb^5+^(Si_25_O_73_)(O,OH,H_2_O)_3_(F,Cl)_2_
Locality: Poudrette quarry, Mont St-Hilaire, Quebec, Canada
Source: Donald Doell
Description: Massive yellowish-gray
Raman shift (cm-1)	intensity
178.867	306.681
181.759	316.354
184.652	319.158
187.545	329.076
190.437	332.733
193.33	342.925
196.223	347.259
199.115	357.451
202.008	360.192
204.901	373.101
207.794	384.992
210.686	396.496
213.579	409.435
216.472	421.605
219.364	432.512
222.257	446.484
225.15	451.798
228.042	467.299
230.935	468.924
233.828	474.553
236.721	477.7
239.613	483.238
242.506	480.994
245.399	483.999
248.291	481.617
251.184	479.599
254.077	480.761
256.969	480.619
259.862	489.538
262.755	494.303
265.648	496.365
268.54	504.768
271.433	511.718
274.326	518.68
277.218	524.722
280.111	532.46
283.004	539.868
285.897	540.735
288.789	550.446
291.682	554.082
294.575	564.06
297.467	579.034
300.36	597.925
303.253	615.851
306.145	638.804
309.038	661.682
311.931	676.67
314.824	690.553
317.716	698.487
320.609	696.957
323.502	696.568
326.394	688.608
329.287	680.432
332.18	670.885
335.072	656.952
337.965	650.204
340.858	643.039
343.75	632.958
346.643	629.567
349.536	626.543
352.429	622.604
355.321	619.206
358.214	618.916
361.107	614.52
364	611.598
366.892	606.833
369.785	609.1
372.678	605.992
375.57	600.274
378.463	597.856
381.356	593.692
384.248	596.853
387.141	593.486
390.034	593.186
392.926	590.648
395.819	591.554
398.712	585.798
401.605	587.798
404.497	586.21
407.39	592.682
410.283	594.271
413.175	602.994
416.068	617.858
418.961	635.004
421.853	658.407
424.746	687.135
427.639	721.88
430.532	764.793
433.424	812.022
436.317	865.843
439.21	927.521
442.102	991.973
444.995	1057.93
447.888	1115.79
450.781	1169.12
453.673	1222.66
456.566	1256.12
459.459	1271.84
462.351	1274.46
465.244	1249.58
468.137	1219.4
471.029	1169.61
473.922	1126.16
476.815	1062.3
479.707	1006.72
482.6	953.068
485.493	907.383
488.386	866.406
491.278	839.564
494.171	817.676
497.064	801.77
499.956	781.953
502.849	771.397
505.742	753.122
508.635	737.068
511.527	722.839
514.42	702.465
517.313	684.583
520.205	666.376
523.098	645.366
525.991	630.951
528.883	610.419
531.776	594.649
534.669	573.892
537.562	560.937
540.454	544.512
543.347	528.746
546.24	517.292
549.132	502.168
552.025	495.509
554.918	483.871
557.81	480.416
560.703	474.344
563.596	463.351
566.489	454.822
569.381	453.429
572.274	440.201
575.167	428.467
578.059	416.509
580.952	408.869
583.845	403.788
586.737	398.066
589.63	396.093
592.523	395.75
595.415	395.442
598.308	396.535
601.201	396.106
604.094	396.281
606.986	401.479
609.879	402.757
612.772	403.995
615.664	400.82
618.557	400.719
621.45	400.004
624.342	404.905
627.235	406.567
630.128	410.649
633.021	407.434
635.913	412.413
638.806	410.735
641.699	410.554
644.591	410.092
647.484	412.686
650.377	416.012
653.269	414.41
656.162	416.75
659.055	418.522
661.948	419.455
664.84	421.88
667.733	422.462
670.626	425.316
673.518	425.121
676.411	426.81
679.304	429.022
682.197	429.431
685.089	432.199
687.982	432.623
690.875	432.984
693.767	437.86
696.66	437.792
699.553	440.325
702.445	442.635
705.338	441.403
708.231	438.929
711.124	436.059
714.016	428.833
716.909	421.945
719.802	413.653
722.694	411.384
725.587	404.421
728.48	395.93
731.372	390.099
734.265	380.968
737.158	371.387
740.051	363.557
742.943	354.214
745.836	344.709
748.729	337.569
751.621	326.779
754.514	316.006
757.407	308.615
760.299	304.383
763.192	295.192
766.085	290.357
768.977	287.061
771.87	283.057
774.763	278.463
777.656	274.402
780.548	276.138
783.441	281.584
786.334	269.893
789.226	263.547
792.119	265.205
795.012	268.533
797.904	263.807
800.797	264.788
803.69	264.263
806.583	264.912
809.475	263.405
812.368	260.558
815.261	259.712
818.153	255.014
821.046	253.353
823.939	249.692
826.832	243.968
829.724	240.164
832.617	235.048
835.51	230.787
838.402	227.684
841.295	220.589
844.188	216.959
847.08	212.255
849.973	208.298
852.866	203.443
855.759	198.679
858.651	192.862
861.544	189.832
864.437	185.525
867.329	182.083
870.222	176.818
873.115	172.736
876.007	170.653
878.9	166.561
881.793	164.298
884.686	161.629
887.578	160.387
890.471	158.62
893.364	154.857
896.256	154.729
899.149	153.415
902.042	152.375
904.934	153.174
907.827	153.731
910.72	151.261
913.612	152.576
916.505	151.13
919.398	153.341
922.291	153.427
925.183	154.39
928.076	157.02
930.969	157.973
933.861	156.734
936.754	159.678
939.647	158.374
942.539	161.938
945.432	163.291
948.325	165.452
951.218	167.579
954.11	171.73
957.003	173.139
959.896	175.357
962.788	178.573
965.681	182.631
968.574	188.122
971.466	192.025
974.359	195.768
977.252	201.288
980.145	205.184
983.037	211.235
985.93	215.645
988.823	219.125
991.715	221.688
994.608	226.979
997.501	231.123
1000.39	231.462
1003.29	232.858
1006.18	233.219
1009.07	234.102
1011.96	233.581
1014.86	233.494
1017.75	233.143
1020.64	229.914
1023.53	229.806
1026.43	229.319
1029.32	226.179
1032.21	225.727
1035.11	222.667
1038	222.201
1040.89	219.975
1043.78	218.962
1046.68	214.71
1049.57	213.695
1052.46	216.995
1055.36	217.42
1058.25	218.466
1061.14	222.228
1064.03	224.655
1066.93	227.118
1069.82	226.6
1072.71	229.836
1075.6	229.299
1078.5	233.411
1081.39	236.608
1084.28	239.495
1087.17	243.358
1090.07	249.835
1092.96	252.811
1095.85	258.947
1098.74	262.08
1101.64	268.705
1104.53	276.095
1107.42	285.338
1110.32	292.408
1113.21	299.88
1116.1	310.371
1118.99	320.278
1121.89	332.989
1124.78	343.667
1127.67	352.799
1130.57	366.948
1133.46	381.432
1136.35	396.896
1139.24	411.453
1142.14	428.778
1145.03	442.2
1147.92	464.4
1150.81	480.349
1153.71	504.228
1156.6	524.481
1159.49	546.724
1162.38	576.394
1165.28	602.165
1168.17	638.183
1171.06	669.906
1173.96	714.688
1176.85	750.825
1179.74	801.52
1182.63	849.533
1185.53	909.974
1188.42	977.568
1191.31	1053.71
1194.2	1138.37
1197.1	1227.46
1199.99	1332.07
1202.88	1444.21
1205.78	1580.8
1208.67	1715.82
1211.56	1874.44
1214.45	2047.87
1217.35	2231.98
1220.24	2429.51
1223.13	2633.04
1226.02	2862.43
1228.92	3064.77
1231.81	3278.68
1234.7	3505.94
1237.6	3707.59
1240.49	3891.93
1243.38	4084.74
1246.27	4253.72
1249.17	4395.31
1252.06	4510.04
1254.95	4598.34
1257.84	4675.02
1260.74	4741.65
1263.63	4772.27
1266.52	4771.57
1269.41	4768.49
1272.31	4746.78
1275.2	4719.83
1278.09	4706.75
1280.98	4671.12
1283.88	4651.48
