Measurement: Raman, 532 nm, unoriented, Raman Data Processed
Mineral: Ferrierite-K
Rruff sample: R110200
Ideal chemistry: (K,Na)_5_(Si_31_Al_5_)O_72_18H_2_O
Locality: Conejo Volcanics, Agoura, Santa Monica Mountains, Los Angeles County, California, USA
Source: Donald Doell
Description: Radial aggregates of acicular colorless crystals associated with clinoptilolite-K R110201
Raman shift (cm-1)	intensity
219.699	12130.7
222.592	12254.1
225.485	12328
228.377	12364.6
231.27	12455.8
234.163	12531.6
237.056	12569.3
239.948	12603.5
242.841	12618.3
245.734	12654.4
248.626	12720.8
251.519	12764.2
254.412	12834.7
257.305	12867.2
260.197	12945.4
263.09	12964.6
265.983	12995.9
268.875	13061.9
271.768	13108.1
274.661	13221.6
277.553	13259.9
280.446	13278.4
283.339	13250.7
286.232	13245.5
289.124	13299
292.017	13374.6
294.91	13430.6
297.802	13481.4
300.695	13546.8
303.588	13565.5
306.481	13649.5
309.373	13649.5
312.266	13700.4
315.159	13755.2
318.051	13789.4
320.944	13797.3
323.837	13821.2
326.729	13879.1
329.622	13878.8
332.515	13929
335.408	14008.2
338.3	14078.9
341.193	14082.6
344.086	14094.7
346.978	14094
349.871	14135.5
352.764	14209
355.656	14254.9
358.549	14307.1
361.442	14318.9
364.334	14301.7
367.227	14334.3
370.12	14393.5
373.012	14427.2
375.905	14415.3
378.798	14451.2
381.691	14507.3
384.583	14564.1
387.476	14605.9
390.369	14636.1
393.261	14656
396.154	14696
399.047	14795.7
401.94	14789.8
404.832	14880.2
407.725	14924.7
410.618	14967.7
413.51	15048
416.403	15086.5
419.296	15083.2
422.188	15133
425.081	15181.5
427.974	15234.7
430.866	15289
433.759	15265.4
436.652	15256.6
439.545	15320.2
442.437	15345.2
445.33	15394.7
448.223	15403.5
451.115	15430.6
454.008	15403.5
456.901	15416.5
459.793	15435.4
462.686	15445.5
465.579	15433.2
468.472	15421.7
471.364	15434
474.257	15460.5
477.15	15469
480.042	15498.9
482.935	15522.4
485.828	15532.4
488.721	15580.4
491.613	15605.5
494.506	15657.7
497.399	15662
500.291	15702.3
503.184	15679.4
506.077	15698.6
508.969	15710.8
511.862	15805.5
514.755	15799.6
517.648	15742.6
520.54	15791.9
523.433	15850.5
526.326	15924.6
529.218	15923.2
532.111	15936.5
535.004	15940.1
537.896	15931.6
540.789	15977.4
543.682	16017.4
546.575	16015.5
549.467	16112.5
552.36	16121.6
555.253	16130.5
558.145	16121.6
561.038	16122.4
563.931	16162.2
566.823	16155.8
569.716	16156.8
572.609	16173
575.502	16206.8
578.394	16241.4
581.287	16309.8
584.18	16277.9
587.072	16337.2
589.965	16317.1
592.858	16341.2
595.75	16384.1
598.643	16350.1
601.536	16363.4
604.428	16354.8
607.321	16367.9
610.214	16401
613.107	16447.2
615.999	16417.9
618.892	16463.7
621.785	16429.8
624.677	16466.1
627.57	16427.2
630.463	16471.3
633.356	16528.6
636.248	16564.5
639.141	16576.3
642.034	16587.7
644.926	16599.6
647.819	16613.3
650.712	16617.3
653.604	16677.8
656.497	16678.1
659.39	16735
662.283	16752.7
665.175	16738.5
668.068	16714.9
670.961	16766.4
673.853	16760
676.746	16781.6
679.639	16820.3
682.531	16892.6
685.424	16909.5
688.317	16918
691.21	16936.8
694.102	16926.9
696.995	16955.9
699.888	16946.7
702.78	16939.4
705.673	16930.7
708.566	17001.1
711.458	17017.5
714.351	16998.4
717.244	16984.7
720.136	16946.4
723.029	17018.1
725.922	17058
728.815	17141.6
731.707	17108.2
734.6	17128.9
737.493	17101.1
740.385	17103.6
743.278	17101.4
746.171	17130.4
749.063	17145.4
751.956	17229.8
754.849	17255.6
757.742	17287.8
760.634	17289.2
763.527	17264.2
766.42	17276
769.312	17304.1
772.205	17324.1
775.098	17313.4
777.99	17351.9
780.883	17379
783.776	17390.6
786.669	17386.2
789.561	17364.9
792.454	17414.3
795.347	17429.6
798.239	17409.7
801.132	17399.8
804.025	17421.1
806.918	17440.9
809.81	17471.9
812.703	17482.1
815.596	17528.7
818.488	17564.5
821.381	17640.4
824.274	17523.8
827.166	17533.8
830.059	17558.3
832.952	17556
835.845	17588.6
838.737	17543.2
841.63	17624.4
844.523	17614.6
847.415	17590.8
850.308	17598.7
853.201	17610.7
856.093	17700.4
858.986	17690.7
861.879	17737.7
864.771	17725.1
867.664	17717.9
870.557	17711.9
873.45	17775.5
876.342	17805.2
879.235	17766.5
882.128	17756.8
885.02	17800.7
887.913	17857.9
890.806	17854.7
893.698	17861.8
896.591	17823.9
899.484	17811.6
902.377	17868.7
905.269	17910.9
908.162	17932.9
911.055	17941.2
913.947	17946.7
916.84	17986
919.733	17953.5
922.625	17951.7
925.518	18003.9
928.411	18005.7
931.304	18007.4
934.196	18004.4
937.089	17968.2
939.982	18019.8
942.875	18088.6
945.767	18067.4
948.66	18023.2
951.553	18070.9
954.445	18102.2
957.338	18076.6
960.231	18083.4
963.123	18119.2
966.016	18171.5
968.909	18220.1
971.802	18145.3
974.694	18161.8
977.587	18142.4
980.48	18213.7
983.372	18196
986.265	18239
989.158	18268.2
992.05	18286
994.943	18299
997.836	18258.9
1000.73	18292
1003.62	18284.4
1006.51	18327.3
1009.41	18358.4
1012.3	18361.7
1015.19	18355.2
1018.09	18392.7
1020.98	18450.1
1023.87	18467.7
1026.76	18407.8
1029.66	18476
1032.55	18487.3
1035.44	18573
1038.33	18513.4
1041.23	18491.1
1044.12	18536.9
1047.01	18543.2
1049.9	18555.8
1052.8	18610.2
1055.69	18625.1
1058.58	18639.1
1061.47	18651.9
1064.37	18721.4
1067.26	18688.4
1070.15	18681.8
1073.05	18674.1
1075.94	18658.9
1078.83	18644.6
1081.72	18678.8
1084.62	18705.3
1087.51	18696.2
1090.4	18739.8
1093.3	18737
1096.19	18768.6
1099.08	18796.1
1101.97	18815.7
1104.87	18819.9
1107.76	18816.8
1110.65	18849.2
1113.54	18884.5
1116.44	18878.4
1119.33	18886.4
1122.22	18886.4
1125.12	18888.9
1128.01	18893.3
1130.9	18883.6
1133.79	18884.2
1136.68	18985.8
1139.58	18995.9
1142.47	18997.8
1145.36	18961.5
1148.26	19001.8
1151.15	19037.4
1154.04	19043.8
1156.93	19043.7
1159.83	19021.2
1162.72	19078.1
1165.61	19045.4
1168.51	19064.7
1171.4	19070.9
1174.29	19109.7
1177.18	19137.8
1180.08	19142
1182.97	19150.9
1185.86	19164
1188.75	19195
1191.65	19158.8
1194.54	19163.1
1197.43	19191.6
1200.33	19192.2
1203.22	19217.2
1206.11	19289.7
1209	19293.6
1211.9	19309.8
1214.79	19295.2
1217.68	19252.7
1220.57	19247.5
1223.47	19300.1
1226.36	19312.5
1229.25	19316.8
1232.14	19276.8
1235.04	19248.5
1237.93	19254
1240.82	19276.5
1243.71	19322.3
1246.61	19346.6
1249.5	19300.3
1252.39	19370
1255.29	19383
1258.18	19433.2
1261.07	19388.5
1263.96	19455.9
1266.86	19422.1
1269.75	19458.8
1272.64	19473.9
1275.54	19501
1278.43	19521.3
1281.32	19476.8
1284.21	19486.9
1287.11	19520.8
1290	19559.3
1292.89	19575.4
1295.78	19581
1298.68	19615.7
1301.57	19607.6
