Measurement: Raman, 785 nm, unoriented, Raman Data Processed
Mineral: Ferri-pedrizite
Rruff sample: R070344
Ideal chemistry: NaLi_2_[Fe^3+^_2_Mg_2_Li]Si_8_O_22_(OH)_2_
Locality: east Pedriza Massif, Sierra de Guadarrama, Spain
Source: Michael Scott
Description: Black bladed crystals
Measured chemistry: (Na_0.78_[box]_0.10_Ca_0.06_K_0.06_)_Σ=1_Li_2.00_[Fe^3+^_2.52_Mg_0.99_Fe^2+^_0.20_Al_0.16_Mn_0.07_Ti_0.03_Cr_0.03_Li_1.00_]Si_8.00_O_22_((OH)_1.27_F_0.73_)_Σ=2_; H_2_O from stoichiometry after deducting F; Li_2_O by difference
Raman shift (cm-1)	intensity
201.051	0
203.944	12.7461
206.836	16.8613
209.729	98.8984
212.622	121.869
215.514	25.5527
218.407	53.2598
221.3	199.643
224.192	110.514
227.085	35.2441
229.978	80.7539
232.87	33.2168
235.763	3.71289
238.656	68.3926
241.549	73.9629
244.441	117.465
247.334	175.318
250.227	148.055
253.119	116.09
256.012	78.9688
258.905	185.242
261.798	121.811
264.69	131.525
267.583	95.668
270.476	87.0644
273.368	116.818
276.261	134.9
279.154	40.8516
282.046	119.516
284.939	216.935
287.832	233.131
290.724	199.881
293.617	247.756
296.51	223.914
299.403	152.492
302.295	186.562
305.188	342.082
308.081	147.42
310.973	303.373
313.866	183.473
316.759	290.062
319.651	192.81
322.544	166.072
325.437	162.303
328.33	155.07
331.222	157.203
334.115	243.244
337.008	86.5391
339.9	49.4316
342.793	79.3691
345.686	79.582
348.579	171.496
351.471	198.898
354.364	268.981
357.257	223.553
360.149	338.199
363.042	281.785
365.935	242.154
368.827	175.152
371.72	284.031
374.613	223.482
377.505	152.945
380.398	74.6914
383.291	84.1152
386.184	76.6738
389.076	13.873
391.969	123.844
394.862	116.836
397.754	186.633
400.647	115.439
403.54	19.4688
406.433	52.584
409.325	23.0879
412.218	8.95312
415.111	69.0195
418.003	11.5215
420.896	43.2266
423.789	65.3047
426.681	10.7637
429.574	38.5898
432.467	84.4297
435.36	69.3984
438.252	10.5371
441.145	82.0957
444.038	78.0039
446.93	62.4199
449.823	85.5898
452.716	208.684
455.608	303.525
458.501	373.18
461.394	578.502
464.286	748.297
467.179	583.744
470.072	401.096
472.965	205.541
475.857	79.0312
478.75	111.973
481.643	73.3027
484.535	46.9473
487.428	126.898
490.321	93.0918
493.214	20.3887
496.106	49.541
498.999	18.8945
501.892	100.969
504.784	85.0625
507.677	169.18
510.57	185.582
513.462	233.262
516.355	325.369
519.248	361.162
522.14	323.967
525.033	320.488
527.926	535.279
530.819	703.002
533.711	883.131
536.604	996.215
539.497	1169.17
542.389	1178.42
545.282	1159.7
548.175	1036.69
551.067	864.445
553.96	728.354
556.853	600.568
559.745	651.422
562.638	640.84
565.531	599.842
568.424	517.916
571.316	497.26
574.209	461.736
577.102	417.852
579.994	400.231
582.887	307.143
585.78	208.935
588.673	198.193
591.565	167.103
594.458	142.904
597.351	166.397
600.243	59.582
603.136	46.2227
606.029	60.0898
608.921	12.8809
611.814	23.2891
614.707	4.73633
617.6	31.0508
620.492	23.6191
623.385	31.0566
626.278	21.3555
629.17	110.18
632.063	113.191
634.956	47.7617
637.848	109.484
640.741	57.4062
643.634	135.607
646.527	102.816
649.419	83.2227
652.312	43.1016
655.205	47.9395
658.097	135.576
660.99	79.6973
663.883	75.1484
666.775	102.664
669.668	134.84
672.561	175.49
675.454	171.793
678.346	172.138
681.239	166.007
684.132	139.968
687.024	114.196
689.917	57.0791
692.81	64.2842
695.702	79.8682
698.595	134.058
701.488	150.654
704.381	72.3438
707.273	78.5566
710.166	65.2207
713.059	93.7022
715.951	120.72
718.844	121.829
721.737	91.6504
724.63	104.21
727.522	90.4209
730.415	103.285
733.308	30.5635
736.2	106.955
739.093	118.339
741.986	35.7441
744.878	75.1719
747.771	56.207
750.664	56.6318
753.557	71.9619
756.449	99.6406
759.342	69.3633
762.235	138.311
765.127	64.8291
768.02	45.1455
770.913	17.8008
773.805	4.84473
776.698	49.6748
779.591	43.0176
782.484	190.086
785.376	31.54
788.269	185.01
791.162	102.67
794.054	87.1436
796.947	59.6338
799.84	19.2314
802.732	2.30176
805.625	19.0332
808.518	23.9424
811.41	140.496
814.303	83
817.196	111.679
820.089	75.7519
822.981	47.4023
825.874	75.8232
828.767	88.1719
831.659	41.6797
834.552	37.9072
837.445	157.69
840.337	72.6328
843.23	111.234
846.123	147.883
849.016	50.9512
851.908	62.6816
854.801	102.549
857.694	86.1523
860.586	65.9111
863.479	76.8789
866.372	92.7305
869.264	142.053
872.157	85.9658
875.05	45.3486
877.943	90.1103
880.835	102.906
883.728	78.9658
886.621	68.165
889.513	105.97
892.406	63.4102
895.299	81.3242
898.192	19.0557
901.084	6.64453
903.977	18.5576
906.87	62.8633
909.762	40.624
912.655	94.249
915.548	76.916
918.44	14.9609
921.333	71.959
924.226	16.9463
927.119	29.8535
930.011	34.6543
932.904	95.3984
935.797	22.0664
938.689	70.8711
941.582	21.6338
944.475	25.7578
947.367	2.28418
950.26	110.491
953.153	18.2305
956.045	160.449
958.938	99.5742
961.831	153.494
964.724	112.736
967.616	157.237
970.509	204.917
973.402	240.307
976.294	187.865
979.187	175.496
982.08	109.135
984.972	167.369
987.865	127.053
990.758	38.332
993.651	44.6094
996.543	26.4326
999.436	7.5332
1002.33	20.7246
1005.22	42.626
1008.11	0.22168
1011.01	34.8975
1013.9	86.001
1016.79	27.8398
1019.68	5.90918
1022.58	154.198
1025.47	177.296
1028.36	187.194
1031.26	152.739
1034.15	185.795
1037.04	160.053
1039.93	113.32
1042.83	102.453
1045.72	165.62
1048.61	166.064
1051.51	176.347
1054.4	99.8828
1057.29	176.65
1060.18	135.046
1063.08	128.868
1065.97	171.43
1068.86	108.612
1071.75	122.085
1074.65	114.964
1077.54	31.5381
1080.43	122.777
1083.32	175.804
1086.22	44.1777
1089.11	88.6045
1092	40.4121
1094.89	49.4844
1097.79	137.674
1100.68	139.561
1103.57	128.64
1106.47	96.5
1109.36	105.825
1112.25	77.7041
1115.14	71.29
1118.04	127.741
1120.93	85.6768
1123.82	105.915
1126.71	51.8281
1129.61	97.707
1132.5	37.0654
1135.39	30.2969
1138.29	36.4502
1141.18	88.8232
1144.07	59.082
1146.96	48.749
1149.86	69.291
1152.75	112.946
1155.64	37.2725
1158.53	52.1777
1161.43	11.5557
1164.32	129.247
1167.21	9.05859
1170.11	27.292
1173	8.34375
1175.89	96.2822
1178.78	48.9443
1181.68	11.4375
1184.57	84.8535
1187.46	127.894
1190.35	55.417
1193.25	126.075
1196.14	15.8701
1199.03	129.178
1201.92	23.748
1204.82	70.1494
1207.71	36.8975
1210.6	38.9717
1213.5	91.4385
1216.39	68.7197
1219.28	96.3213
1222.17	98.2988
1225.07	0.443359
