Measurement: Raman, 780 nm, unoriented, Raman Data Processed
Mineral: Fetiasite
Rruff sample: R100014
Ideal chemistry: (Fe^2+^,Fe^3+^,Ti^4+^)_3_O_2_As^3+^_2_O_5_
Locality: Gorb, Binnental, Valais, Switzerland
Source: William Pinch
Description: Brown to reddish-brown platy massive
Raman shift (cm-1)	intensity
181.819	1.22055
184.712	1.23685
187.604	1.47366
190.497	0.169712
193.39	3.01721
196.282	0.500843
199.175	1.20637
202.068	1.17433
204.96	1.59359
207.853	0.112911
210.746	0.853176
213.639	3.54734
216.531	3.23642
219.424	0.523247
222.317	1.75782
225.209	4.65021
228.102	1.98287
230.995	1.81815
233.887	2.90454
236.78	4.26548
239.673	2.39799
242.566	2.67189
245.458	2.79604
248.351	2.29263
251.244	1.65506
254.136	1.47308
257.029	2.99221
259.922	3.23755
262.815	2.02314
265.707	2.7535
268.6	3.00831
271.493	2.77796
274.385	2.23057
277.278	2.24444
280.171	1.30213
283.063	1.77979
285.956	3.8335
288.849	4.03896
291.741	4.21771
294.634	1.80953
297.527	2.05337
300.42	2.01965
303.312	2.7775
306.205	0.214005
309.098	2.33059
311.99	1.96392
314.883	2.66906
317.776	0.866749
320.668	1.15582
323.561	1.87138
326.454	1.35409
329.347	0.431702
332.239	0.992825
335.132	0.454456
338.025	1.27279
340.917	0.224968
343.81	1.91213
346.703	0.013168
349.596	0.797646
352.488	0.076862
355.381	1.10788
358.274	2.17807
361.166	1.42352
364.059	2.88603
366.952	1.70752
369.844	3.46472
372.737	3.67218
375.63	0.659237
378.522	3.2414
381.415	2.61226
384.308	2.01565
387.201	2.32426
390.093	3.00432
392.986	2.72161
395.879	2.08871
398.771	4.46747
401.664	2.88983
404.557	2.60454
407.45	1.89798
410.342	2.57025
413.235	4.58665
416.128	2.61867
419.02	2.92984
421.913	2.9101
424.806	1.311
427.698	3.82356
430.591	3.94817
433.484	3.15517
436.377	3.04128
439.269	2.78708
442.162	3.31364
445.055	2.02838
447.947	4.22524
450.84	2.99435
453.733	1.72251
456.625	1.03952
459.518	0.642206
462.411	0.503632
465.303	0.061111
468.196	0.573311
471.089	0.712837
473.982	0.513773
476.874	1.98015
479.767	2.646
482.66	2.78154
485.552	1.26475
488.445	1.69622
491.338	2.59347
494.231	2.36737
497.123	0.88212
500.016	0.278746
502.909	0.099224
505.801	1.31147
508.694	0.855694
511.587	2.29475
514.479	1.38864
517.372	2.96952
520.265	1.74332
523.158	0.991961
526.05	2.23959
528.943	1.68107
531.836	2.34092
534.728	1.92162
537.621	1.46632
540.514	2.18522
543.406	2.76609
546.299	0.007465
549.192	2.45962
552.085	0.759827
554.977	2.71139
557.87	1.80922
560.763	0.209312
563.655	1.04914
566.548	2.12516
569.441	2.50162
572.333	2.39799
575.226	0.691032
578.119	0.984283
581.011	1.78478
583.904	0.00147736
586.797	0.035543
589.69	0.497292
592.582	0.558578
595.475	0.5382
598.368	1.78356
601.26	1.80626
604.153	1.10849
607.046	0.924372
609.938	2.23226
612.831	0.595003
615.724	0.828482
618.617	0.77186
621.509	2.31293
624.402	0.681805
627.295	0.192448
630.187	2.58247
633.08	1.61301
635.973	2.24923
638.865	1.55097
641.758	2.51497
644.651	3.2505
647.544	3.54625
650.436	2.55473
653.329	4.95336
656.222	3.9367
659.114	2.18022
662.007	3.62751
664.9	3.36713
667.793	4.27397
670.685	4.3242
673.578	3.49833
676.471	3.13472
679.363	3.79049
682.256	3.20996
685.149	3.51843
688.041	2.57449
690.934	2.82367
693.827	0.198406
696.72	0.614752
699.612	1.32881
702.505	1.63028
705.398	1.29776
708.29	1.62081
711.183	0.688936
714.076	1.67019
716.968	0.064589
719.861	0.844566
722.754	1.05465
725.646	0.855608
728.539	0.338093
731.432	0.995399
734.325	1.76904
737.217	1.26337
740.11	0.925093
743.003	0.234602
745.895	1.81298
748.788	1.69932
751.681	0.99435
754.573	1.56072
757.466	0.905741
760.359	2.20229
763.252	2.13774
766.144	0.830547
769.037	1.56659
771.93	1.43179
774.822	3.3857
777.715	1.54938
780.608	3.42311
783.5	1.09833
786.393	2.10823
789.286	2.51481
792.179	2.27553
795.071	2.12804
797.964	2.24244
800.857	1.8908
803.75	1.69979
806.642	0.934338
809.535	0.183998
812.428	3.46041
815.32	1.87485
818.213	1.85629
821.106	1.40794
823.998	0.211418
826.891	2.08696
829.784	0.387856
832.677	1.70588
835.569	1.05163
838.462	2.34069
841.355	1.03098
844.247	0.485645
847.14	1.96006
850.033	1.43996
852.925	2.08257
855.818	2.2732
858.711	1.58741
861.604	2.6765
864.496	2.15266
867.389	2.18703
870.282	2.86031
873.174	2.58675
876.067	2.12226
878.96	1.87571
881.852	0.963415
884.745	0.389534
887.638	1.37664
890.53	2.2251
893.423	0.900801
896.316	1.13117
899.209	1.36369
902.101	1.19608
904.994	0.460297
907.887	0.623717
910.779	0.024416
913.672	0.769838
916.565	0.815408
919.457	2.23354
922.35	2.37822
925.243	1.82095
928.136	2.14197
931.028	2.39684
933.921	0.501478
936.814	1.00062
939.706	1.48948
942.599	0.463546
945.492	0.147178
948.385	0.553468
951.277	2.44856
954.17	0.16516
957.063	4.05202
959.955	2.80964
962.848	1.66583
965.741	0.096992
968.633	0.628201
971.526	0.652962
974.419	2.1151
977.312	2.16251
980.204	1.16583
983.097	2.68504
985.99	1.7664
988.882	1.43613
991.775	3.2258
994.668	2.08629
997.56	0.167876
1000.45	0.203939
1003.35	1.18633
1006.24	1.71975
1009.13	0.238029
1012.02	2.12581
1014.92	1.58038
1017.81	0.893106
1020.7	1.48385
1023.6	2.96498
1026.49	1.222
1029.38	0.350816
1032.27	2.48557
1035.17	0.768158
1038.06	2.00235
1040.95	1.79395
1043.84	2.87641
1046.74	0.55449
1049.63	2.08959
1052.52	0.942899
1055.41	0.244442
1058.31	0.456965
1061.2	1.22677
1064.09	2.02012
1066.98	1.47187
1069.88	0.984154
1072.77	2.90499
1075.66	1.37698
1078.56	1.49099
1081.45	1.89248
1084.34	1.36322
1087.23	1.04761
1090.13	0.113822
1093.02	1.62975
1095.91	1.63745
1098.81	1.93156
1101.7	0.015805
1104.59	0.212718
1107.48	0.087432
1110.38	1.00203
1113.27	1.88411
1116.16	0.576863
1119.05	0.769063
1121.95	1.68334
1124.84	2.12294
1127.73	1.64766
1130.62	0.558469
1133.52	1.29698
1136.41	1.20385
1139.3	2.37776
1142.19	3.73578
1145.09	1.1954
1147.98	1.21769
1150.87	0.818329
1153.77	0.588233
1156.66	1.97579
1159.55	1.57224
1162.44	1.58516
1165.34	1.41804
1168.23	2.5809
1171.12	1.03902
1174.02	1.05966
1176.91	1.58665
1179.8	0.71871
1182.69	1.72598
1185.59	1.99439
1188.48	2.16856
1191.37	2.44352
1194.26	1.53806
1197.16	1.61246
1200.05	1.84524
1202.94	3.21409
1205.84	2.39082
1208.73	0.534067
1211.62	1.74005
1214.51	1.03701
1217.41	4.28564
1220.3	2.52676
1223.19	1.57655
1226.08	1.15349
1228.98	3.32603
1231.87	-0.115569
1234.76	0.802443
1237.65	1.21435
1240.55	0.021337
1243.44	2.08715
1246.33	1.20981
1249.22	2.11761
1252.12	2.83467
1255.01	3.34851
1257.9	3.4884
1260.8	1.19407
1263.69	2.01089
1266.58	0.190968
1269.47	2.43743
1272.37	1.56697
1275.26	2.82353
1278.15	1.26861
1281.05	0.302541
1283.94	0.282518
