Measurement: Raman, 532 nm, unoriented, Raman Data Processed
Mineral: Fettelite
Rruff sample: R100083
Ideal chemistry: Ag_16_HgAs_4_S_15_
Locality: Chanarcillo, Chile
Source: William W Pinch
Description: Red platy crystals on acanthite. Cell parameters match those reported by Bindi et al (2009), indicating a fettelite polytype.
Measured chemistry: Ag_15.66_Hg_1.21_Fe_0.02_Cu_0.004_Sb_0.17_As_3.61_S_15_
Raman shift (cm-1)	intensity
167.149	0
170.041	3.35295
172.934	2.41202
175.827	2.01306
178.72	5.82913
181.612	1.82358
184.505	3.23064
187.398	2.28353
190.29	1.42998
193.183	0.220845
196.076	5.05538
198.968	2.16412
201.861	2.95911
204.754	5.42892
207.647	2.21288
210.539	3.98082
213.432	3.93059
216.325	4.60651
219.217	4.58186
222.11	1.37426
225.003	0.844577
227.895	0.255393
230.788	0.261796
233.681	3.01386
236.573	4.82601
239.466	4.36509
242.359	4.05717
245.252	1.85007
248.144	2.16762
251.037	3.43019
253.93	2.83697
256.822	2.79997
259.715	2.81625
262.608	1.95798
265.5	2.79181
268.393	2.89981
271.286	1.88234
274.179	3.59342
277.071	0.194588
279.964	1.71986
282.857	1.18756
285.75	0.134462
288.642	2.08799
291.535	3.23685
294.428	1.30088
297.32	3.8005
300.213	2.29342
303.106	4.3069
305.998	1.158
308.891	2.47852
311.784	0.73193
314.676	2.92053
317.569	1.20056
320.462	2.09653
323.355	0.570683
326.247	0.576372
329.14	1.78724
332.033	3.82103
334.925	4.39692
337.818	3.42196
340.711	3.7907
343.603	2.40071
346.496	2.52538
349.389	2.84423
352.281	1.70748
355.174	3.61362
358.067	0.896877
360.96	6.36106
363.852	6.02855
366.745	5.46477
369.638	9.04734
372.53	10.5107
375.423	9.97667
378.316	7.7978
381.209	7.30374
384.101	3.44951
386.994	3.96389
389.887	1.4178
392.779	1.55283
395.672	4.11736
398.565	2.40174
401.457	0.222948
404.35	4.55196
407.243	2.03638
410.135	0.606087
413.028	2.89092
415.921	4.20715
418.814	0.016736
421.706	2.77442
424.599	2.55429
427.492	0.724864
430.384	2.77576
433.277	1.1977
436.17	1.71382
439.062	0.438474
441.955	1.45013
444.848	1.52267
447.741	0.901257
450.633	1.62977
453.526	3.53616
456.419	3.16709
459.311	3.15277
462.204	1.29892
465.097	1.50748
467.99	5.13399
470.882	2.26408
473.775	0.594979
476.668	3.36945
479.56	2.7678
482.453	2.77697
485.346	1.24794
488.238	0.967946
491.131	0.085991
494.024	2.60512
496.916	0.598353
499.809	1.05175
502.702	3.26871
505.595	3.59635
508.487	4.51171
511.38	2.6937
514.273	0.75212
517.165	1.24077
520.058	2.08456
522.951	0.262391
525.844	1.35479
528.736	2.41269
531.629	0.789935
534.522	1.60063
537.414	5.58197
540.307	2.76064
543.2	2.51554
546.092	0.38455
548.985	1.39937
551.878	2.2775
554.771	1.68637
557.663	0.229841
560.556	2.05922
563.449	2.3021
566.341	2.02464
569.234	1.67388
572.127	1.14103
575.019	2.69011
577.912	0.622598
580.805	0.012836
583.697	0.557263
586.59	1.68523
589.483	1.66438
592.376	1.40451
595.268	1.29272
598.161	0.75926
601.054	2.50066
603.946	0.348021
606.839	0.118063
609.732	4.3895
612.625	1.97111
615.517	1.85197
618.41	2.48452
621.303	0.21289
624.195	1.97181
627.088	3.48476
629.981	3.14148
632.873	3.11326
635.766	1.12696
638.659	1.9541
641.552	2.41921
644.444	3.23124
647.337	1.09151
650.23	2.35672
653.122	2.57359
656.015	2.78929
658.908	3.66344
661.8	0.541849
664.693	1.63797
667.586	3.74287
670.479	1.3154
673.371	1.27675
676.264	1.3854
679.157	2.20236
682.049	1.45922
684.942	2.28853
687.835	1.91827
690.727	1.88782
693.62	2.02925
696.513	2.55196
699.405	2.93526
702.298	0.126701
705.191	1.6771
708.084	2.51837
710.976	2.64439
713.869	1.43453
716.762	2.22856
719.654	1.38926
722.547	4.13197
725.44	0.768261
728.332	2.66317
731.225	2.1793
734.118	3.4756
737.011	3.09463
739.903	2.46149
742.796	0.17737
745.689	4.05516
748.581	2.38372
751.474	1.19102
754.367	3.52343
757.26	0.43168
760.152	1.60712
763.045	0.304229
765.938	2.69713
768.83	0.709652
771.723	0.680645
774.616	2.69827
777.508	2.46019
780.401	1.32735
783.294	0.832445
786.187	1.98512
789.079	1.08912
791.972	2.48714
794.865	1.03984
797.757	1.08534
800.65	3.38295
803.543	1.45322
806.435	0.220664
809.328	1.30645
812.221	2.56885
815.114	2.08016
818.006	0.876499
820.899	2.66894
823.792	3.13045
826.684	3.30394
829.577	2.46393
832.47	2.19604
835.362	3.74527
838.255	1.87042
841.148	0.989982
844.04	1.45481
846.933	2.87148
849.826	3.22183
852.719	1.16385
855.611	3.08702
858.504	1.04263
861.397	3.10546
864.289	3.24422
867.182	1.83731
870.075	2.15236
872.967	4.00784
875.86	0.004164
878.753	2.47835
881.646	2.33693
884.538	0.482917
887.431	1.40943
890.324	1.54732
893.216	2.06084
896.109	3.70842
899.002	3.3449
901.894	3.16405
904.787	1.56367
907.68	1.56112
910.573	1.18196
913.465	1.85559
916.358	0.942169
919.251	1.49849
922.143	2.1741
925.036	1.15691
927.929	0.694808
930.822	2.62266
933.714	3.96804
936.607	2.30083
939.5	0.832994
942.392	1.93238
945.285	0.406746
948.178	4.86941
951.07	1.84306
953.963	3.57735
956.856	0.069117
959.749	4.48965
962.641	1.02389
965.534	2.71086
968.427	1.284
971.319	2.8281
974.212	0.374453
977.105	1.00794
979.997	2.57799
982.89	0.859957
985.783	0.819358
988.676	0.735001
991.568	0.20827
994.461	4.19068
997.354	2.13103
1000.25	0.596411
1003.14	0.189794
1006.03	2.88618
1008.92	3.01743
1011.82	1.48519
1014.71	1.07625
1017.6	2.32802
1020.5	1.34809
1023.39	2.31351
1026.28	2.63629
1029.17	2.3636
1032.07	1.49578
1034.96	4.10451
1037.85	0.707281
1040.74	1.4426
1043.64	0.354066
1046.53	2.85693
1049.42	2.6862
1052.32	3.85729
1055.21	2.71329
1058.1	2.59085
1060.99	3.02151
1063.89	4.53855
1066.78	0.071642
1069.67	3.15759
1072.56	4.37408
1075.46	2.1614
1078.35	2.10561
1081.24	4.2981
1084.13	4.04055
1087.03	3.19592
1089.92	0.729219
1092.81	4.67661
1095.7	1.97857
1098.6	2.3154
1101.49	4.77818
1104.38	2.20559
1107.28	3.16463
1110.17	2.01341
1113.06	1.42664
1115.95	6.2551
1118.85	2.55044
1121.74	2.821
1124.63	4.03132
1127.53	0.966406
1130.42	3.61027
1133.31	2.09419
1136.2	3.69863
1139.1	1.44327
1141.99	3.04125
1144.88	1.62217
1147.77	5.24005
1150.67	3.0949
1153.56	3.58273
1156.45	2.46205
1159.35	1.9182
1162.24	3.22015
1165.13	0.412241
1168.02	4.33623
1170.92	1.69318
1173.81	2.51713
1176.7	3.21219
1179.59	3.17158
1182.49	2.48169
1185.38	3.67339
1188.27	4.71023
1191.16	2.57397
1194.06	2.91363
1196.95	0.881307
1199.84	1.58526
1202.73	0.187925
1205.63	4.97741
1208.52	1.60187
1211.41	2.56258
1214.31	0.735302
1217.2	3.54869
1220.09	2.30299
1222.98	1.37439
1225.88	1.29706
1228.77	1.87555
1231.66	2.27441
1234.56	1.78388
1237.45	3.68095
1240.34	0.680405
1243.23	0.898046
1246.13	2.57793
1249.02	3.72752
1251.91	0.186798
1254.8	1.2613
1257.7	4.73925
1260.59	3.0186
1263.48	1.88128
1266.38	1.80496
1269.27	3.18709
1272.16	0.195918
1275.05	0.500314
1277.95	0.308443
1280.84	0.462254
1283.73	5.58497
1286.62	1.34633
1289.52	0.059789
1292.41	1.08619
1295.3	0.608758
1298.19	4.79326
1301.09	2.26348
