Measurement: Raman, 532 nm, unoriented, Raman Data Processed
Mineral: Fingerite
Rruff sample: R070614
Ideal chemistry: Cu^2+^_11_O_2_(V^5+^O_4_)_6_
Locality: Izalco Volcano, Sonsonate Department, El Salvador
Source: Michael Scott
Description: Black submetallic well-formed prismatic crystals associated with black, poorly-formed ziesite, R070482
Raman shift (cm-1)	intensity
155.823	0
158.716	13.0483
161.609	64.6492
164.501	63.8633
167.394	73.8545
170.287	49.1996
173.179	5.03235
176.072	18.2086
178.965	19.7405
181.858	38.7492
184.75	63.5967
187.643	99.5485
190.536	34.696
193.428	11.1345
196.321	81.1063
199.214	74.5254
202.107	39.1367
204.999	23.3661
207.892	5.77612
210.785	32.2479
213.677	18.97
216.57	48.2161
219.463	12.2545
222.355	79.2609
225.248	51.7293
228.141	65.7148
231.034	10.3013
233.926	6.95886
236.819	0.370483
239.712	0.608154
242.604	16.9697
245.497	24.7695
248.39	20.5558
251.282	28.5919
254.175	43.471
257.068	40.4388
259.96	55.0476
262.853	60.6163
265.746	20.1726
268.639	17.2067
271.531	12.4637
274.424	5.39185
277.317	19.093
280.209	53.1093
283.102	83.7267
285.995	58.8835
288.887	30.0958
291.78	64.7339
294.673	39.8884
297.565	45.4308
300.458	55.6364
303.351	53.6533
306.244	50.4142
309.136	71.1605
312.029	70.3097
314.922	48.4978
317.814	86.9805
320.707	52.1782
323.6	58.8621
326.493	53.2549
329.385	51.8883
332.278	58.3946
335.171	8.93957
338.063	43.2039
340.956	42.1542
343.849	53.9801
346.741	45.0485
349.634	65.4102
352.527	34.4828
355.42	62.1549
358.312	27.663
361.205	52.6394
364.098	17.9297
366.99	49.4651
369.883	69.2821
372.776	31.2178
375.668	41.0247
378.561	30.3018
381.454	43.1491
384.346	51.3462
387.239	33.5416
390.132	15.4769
393.024	3.86877
395.917	32.0144
398.81	32.0062
401.703	27.5439
404.595	8.39465
407.488	5.29956
410.381	26.9751
413.273	2.17053
416.166	28.5662
419.059	30.6438
421.952	13.4464
424.844	17.3363
427.737	22.408
430.63	11.968
433.522	52.5978
436.415	53.5008
439.308	37.4108
442.2	1.61633
445.093	57.1561
447.986	43.7708
450.878	34.9624
453.771	29.9145
456.664	21.3841
459.557	19.2611
462.449	23.736
465.342	25.3756
468.235	34.2764
471.127	38.0988
474.02	45.0875
476.913	28.21
479.805	23.6897
482.698	11.2433
485.591	51.655
488.484	46.0647
491.376	56.5725
494.269	35.3414
497.162	11.9979
500.054	37.1281
502.947	36.0712
505.84	41.1786
508.733	68.5894
511.625	69.585
514.518	54.6906
517.41	58.1561
520.303	60.7111
523.196	42.2305
526.089	68.4853
528.981	60.4544
531.874	45.1082
534.767	43.7649
537.659	31.1915
540.552	16.9106
543.445	7.22162
546.337	21.3875
549.23	42.734
552.123	43.2377
555.016	21.7513
557.908	12.0172
560.801	12.739
563.694	14.6742
566.586	4.88605
569.479	1.06543
572.372	17.7894
575.264	26.2601
578.157	15.01
581.05	29.4898
583.943	23.9032
586.835	41.4343
589.728	48.2601
592.621	21.2596
595.513	29.9854
598.406	41.4126
601.299	22.2483
604.192	19.3913
607.084	13.621
609.977	44.3064
612.87	39.8567
615.762	48.8069
618.655	32.016
621.548	13.412
624.44	19.0083
627.333	59.4703
630.226	63.0474
633.119	34.9962
636.011	30.2845
638.904	58.412
641.797	55.6824
644.689	62.9316
647.582	60.8367
650.475	52.7081
653.367	49.5493
656.26	65.2877
659.153	56.9389
662.045	41.1647
664.938	61.123
667.831	63.2198
670.723	53.0642
673.616	41.9862
676.509	43.2536
679.402	23.4153
682.294	28.729
685.187	30.4274
688.08	31.8618
690.972	1.70551
693.865	35.4952
696.758	5.04413
699.65	12.5148
702.543	5.66571
705.436	3.8573
708.329	11.1893
711.221	20.647
714.114	9.42969
717.007	18.5223
719.899	3.22546
722.792	9.71326
725.685	11.8668
728.577	3.78687
731.47	8.68896
734.363	12.9806
737.256	3.86572
740.148	3.87024
743.041	18.8129
745.934	24.2419
748.826	29.1508
751.719	12.4144
754.612	21.9009
757.505	27.7931
760.397	17.9357
763.29	31.7803
766.183	19.7711
769.075	26.2385
771.968	9.65015
774.861	2.0282
777.753	16.1854
780.646	13.918
783.539	0.155273
786.431	16.7799
789.324	29.3833
792.217	22.3712
795.11	30.2761
798.002	20.9791
800.895	7.83496
803.788	4.35938
806.68	5.72156
809.573	27.6748
812.466	33.0389
815.358	7.68799
818.251	34.8817
821.144	25.7527
824.037	29.6841
826.929	56.0633
829.822	48.4816
832.715	86.5618
835.607	102.051
838.5	127.724
841.393	173.159
844.285	171.13
847.178	225.694
850.071	234.147
852.963	197.106
855.856	200.82
858.749	166.811
861.641	190.295
864.534	174.526
867.427	191.742
870.32	182.173
873.212	185.675
876.105	209.194
878.998	256.749
881.89	272.124
884.783	305.015
887.676	287.707
890.568	353.011
893.461	345.88
896.354	376.49
899.247	430.379
902.139	398.403
905.032	381.969
907.925	352.664
910.817	283.178
913.71	291.057
916.603	226.556
919.495	198.825
922.388	192.322
925.281	122.093
928.174	128.604
931.066	90.4161
933.959	87.2892
936.852	51.5795
939.744	44.4456
942.637	37.1337
945.53	37.3898
948.423	24.3675
951.315	15.6567
954.208	30.4936
957.101	6.71637
959.993	5.39502
962.886	5.46655
965.779	18.0727
968.671	3.21796
971.564	3.68091
974.457	19.4439
977.349	9.12146
980.242	16.8192
983.135	1.66406
986.028	40.7614
988.92	8.03394
991.813	23.4449
994.706	24.6899
997.598	36.1724
1000.49	12.7623
1003.38	35.0926
1006.28	26.2312
1009.17	37.1575
1012.06	35.9148
1014.96	72.4423
1017.85	72.9281
1020.74	50.65
1023.63	50.2222
1026.53	63.99
1029.42	59.7874
1032.31	38.4956
1035.2	71.9429
1038.1	41.2703
1040.99	63.8715
1043.88	60.505
1046.77	58.6755
1049.67	40.2004
1052.56	60.5535
1055.45	41.8072
1058.35	32.5696
1061.24	34.512
1064.13	30.5839
1067.02	28.4341
1069.92	36.5934
1072.81	32.0258
1075.7	32.9608
1078.59	42.0507
1081.49	18.2703
1084.38	38.0312
1087.27	32.4883
1090.16	35.9744
1093.06	19.3526
1095.95	28.4172
1098.84	24.0506
1101.73	43.2543
1104.63	0.641479
1107.52	12.8152
1110.41	15.6493
1113.31	25.7601
1116.2	33.8723
1119.09	18.3037
1121.98	21.9456
1124.88	48.8781
1127.77	22.5674
1130.66	8.83545
1133.56	1.4079
1136.45	11.0878
1139.34	37.3901
1142.23	24.1071
1145.13	30.8727
1148.02	33.879
1150.91	17.5197
1153.8	15.3596
1156.7	6.09357
1159.59	1.33282
1162.48	31.3925
1165.38	9.66449
1168.27	12.7763
1171.16	26.0829
1174.05	17.7927
1176.95	5.75214
1179.84	28.1043
1182.73	36.9194
1185.62	25.7513
1188.52	23.3762
1191.41	37.1071
1194.3	48.5228
1197.19	26.0751
1200.09	3.13129
1202.98	52.6627
1205.87	17.3447
1208.77	24.7715
1211.66	19.1221
1214.55	35.3757
1217.44	22.3224
1220.34	10.4575
1223.23	59.0753
1226.12	22.5566
1229.01	6.63898
1231.91	29.6815
1234.8	33.3748
1237.69	46.5993
1240.59	14.5629
1243.48	35.7064
1246.37	25.7516
1249.26	21.0249
1252.16	31.9503
1255.05	8.61688
1257.94	28.0783
1260.83	39.1955
1263.73	21.3163
1266.62	45.4273
1269.51	14.2423
1272.4	29.7479
1275.3	7.28839
