Measurement: Raman, 780 nm, unoriented, Raman Data Processed
Mineral: Fingerite
Rruff sample: R070614
Ideal chemistry: Cu^2+^_11_O_2_(V^5+^O_4_)_6_
Locality: Izalco Volcano, Sonsonate Department, El Salvador
Source: Michael Scott
Description: Black submetallic well-formed prismatic crystals associated with black, poorly-formed ziesite, R070482
Raman shift (cm-1)	intensity
109.877	0
112.77	9.21387
115.662	30.3049
118.555	43.3372
121.448	58.167
124.341	52.8621
127.233	7.56421
130.126	60.5872
133.019	60.5994
135.911	51.4202
138.804	171.899
141.697	86.7783
144.589	56.408
147.482	59.0906
150.375	17.634
153.268	13.074
156.16	52.5425
159.053	3.18921
161.946	30.9504
164.838	20.1516
167.731	56.5855
170.624	125.573
173.516	136.816
176.409	197.225
179.302	182.249
182.195	193.058
185.087	142.555
187.98	144.868
190.873	83.8623
193.765	108.502
196.658	109.488
199.551	78.625
202.443	127.535
205.336	65.0305
208.229	54.7937
211.121	71.5325
214.014	47.3906
216.907	1.10571
219.8	23.0525
222.692	15.6052
225.585	0.990479
228.478	59.562
231.37	4.02051
234.263	34.427
237.156	40.8762
240.048	30.248
242.941	68.5386
245.834	36.6252
248.727	75.0508
251.619	80.2573
254.512	32.8105
257.405	78.0615
260.297	36.5757
263.19	75.1475
266.083	75.4829
268.976	61.3259
271.868	57.2505
274.761	85.8291
277.654	78.7817
280.546	116.281
283.439	48.5295
286.332	65.0476
289.224	55.0239
292.117	15.083
295.01	8.53101
297.902	4.87134
300.795	51.2463
303.688	9.04785
306.581	62.9631
309.473	19.2493
312.366	26.3479
315.259	40.1797
318.151	29
321.044	6.63306
323.937	68.5063
326.829	85.948
329.722	70.0347
332.615	109.722
335.508	148.479
338.4	136.508
341.293	92.6794
344.186	121.032
347.078	155.344
349.971	121.181
352.864	113.406
355.757	88.1956
358.649	87.6562
361.542	86.1763
364.435	83.5071
367.327	33.7429
370.22	96.8545
373.113	57.4055
376.005	46.2949
378.898	30.9492
381.791	23.2268
384.683	25.1357
387.576	73.6189
390.469	51.4956
393.362	81.5911
396.254	36.9243
399.147	3.82617
402.04	24.5332
404.932	27.6763
407.825	47.0974
410.718	42.0015
413.611	48.9922
416.503	7.3938
419.396	1.05444
422.289	24.1099
425.181	41.2537
428.074	1.67358
430.967	13.0046
433.859	10.0903
436.752	1.65576
439.645	15.0398
442.538	0.904785
445.43	10.5955
448.323	86.3679
451.216	12.4941
454.108	67.3013
457.001	14.1963
459.894	65.8689
462.786	40.0344
465.679	93.6021
468.572	106.392
471.464	170.651
474.357	183.239
477.25	162.394
480.143	202.107
483.035	210.73
485.928	237.492
488.821	200.045
491.713	261.065
494.606	289.298
497.499	299.124
500.392	346.747
503.284	317.746
506.177	244.733
509.07	216.92
511.962	228.941
514.855	213.396
517.748	178.058
520.64	159.544
523.533	112.688
526.426	80.6209
529.318	102.829
532.211	94.1296
535.104	79.9187
537.997	57.2085
540.889	37.5686
543.782	32.3799
546.675	39.8689
549.567	89.029
552.46	74.0786
555.353	37.0322
558.245	76.3564
561.138	23.9988
564.031	9.70923
566.924	21.6953
569.816	38.6148
572.709	1.15308
575.602	52.0303
578.494	9.92822
581.387	20.7124
584.28	35.8479
587.173	21.5449
590.065	45.9888
592.958	9.26636
595.851	0.899902
598.743	44.3926
601.636	8.49585
604.529	15.6877
607.421	18.9907
610.314	51.2131
613.207	21.8987
616.1	2.28198
618.992	18.1555
621.885	8.81982
624.778	9.02954
627.67	43.3489
630.563	4.18262
633.456	9.99146
636.348	44.4524
639.241	58.3992
642.134	23.063
645.027	81.6218
647.919	64.771
650.812	31.7854
653.705	19.323
656.597	40.3904
659.49	22.8748
662.383	28.6221
665.275	56.968
668.168	34.8005
671.061	102.553
673.954	113.084
676.846	119.612
679.739	68.5171
682.632	90.2976
685.524	36.2961
688.417	98.0703
691.31	110.502
694.202	46.2895
697.095	66.6951
699.988	22.6775
702.881	46.6628
705.773	43.9646
708.666	47.0698
711.559	7.99243
714.451	46.104
717.344	76.3699
720.237	2.26807
723.13	29.6484
726.022	20.2815
728.915	35.04
731.808	31.8335
734.7	13.2793
737.593	13.8071
740.486	29.9019
743.378	44.385
746.271	4.15649
749.164	24.2356
752.057	16.2222
754.949	34.1902
757.842	24.0596
760.735	15.979
763.627	59.8149
766.52	67.3745
769.413	105.771
772.305	114.018
775.198	185.627
778.091	170.818
780.984	170.322
783.876	151.069
786.769	168.4
789.662	151.695
792.554	183.101
795.447	103.501
798.34	139.398
801.232	117.241
804.125	112.424
807.018	88.7561
809.91	44.3796
812.803	57.5483
815.696	58.4551
818.589	14.856
821.481	17.4831
824.374	33.6196
827.267	46.1033
830.159	3.03955
833.052	4.69385
835.945	43.187
838.837	129.452
841.73	169.651
844.623	199.223
847.516	212.063
850.408	203.748
853.301	201.101
856.194	217.508
859.086	147.579
861.979	84.5447
864.872	80.554
867.764	74.6834
870.657	48.3845
873.55	17.6306
876.443	50.1025
879.335	14.5925
882.228	47.5212
885.121	39.7004
888.013	105.256
890.906	127.945
893.799	144.864
896.692	158.606
899.584	148.742
902.477	158.687
905.37	135.03
908.262	97.04
911.155	69.4985
914.048	51.7585
916.94	16.4758
919.833	12.3938
922.726	34.2227
925.619	36.395
928.511	56.406
931.404	28.9631
934.297	50.9055
937.189	88.2671
940.082	68.0869
942.975	82.9126
945.867	22.4097
948.76	35.8928
951.653	52.3398
954.545	39.4158
957.438	41.0249
960.331	12.0659
963.224	12.0964
966.116	26.1462
969.009	22.2881
971.902	11.0981
974.794	61.5681
977.687	13.6646
980.58	12.6958
983.472	23.8733
986.365	60.1392
989.258	31.2961
992.151	61.9895
995.043	1.84985
997.936	20.7114
1000.83	43.5227
1003.72	21.2432
1006.61	117.535
1009.51	46.9424
1012.4	42.4255
1015.29	52.7915
1018.18	66.6013
1021.08	85.0757
1023.97	62.7366
1026.86	51.2024
1029.76	35.9114
1032.65	81.1802
1035.54	66.8982
1038.43	55.717
1041.33	75.4158
1044.22	63.2268
1047.11	14.8872
1050.01	52.0518
1052.9	60.8992
1055.79	64.9263
1058.68	55.8909
1061.58	52.5935
1064.47	42.9539
1067.36	31.8455
1070.25	18.8127
1073.15	62.7952
1076.04	44.1609
1078.93	42.5735
1081.82	40.9519
1084.72	2.88696
1087.61	21.3276
1090.5	30.1592
1093.39	68.7588
1096.29	36.2039
1099.18	51.498
1102.07	3.86621
1104.97	4.13696
1107.86	52.6299
1110.75	9.57617
1113.64	44.1858
1116.54	30.0552
1119.43	11.2376
1122.32	23.0627
1125.21	44.5757
1128.11	9.83032
1131	38.2329
1133.89	44.3269
1136.79	24.5862
1139.68	78.02
1142.57	8.74463
1145.46	18.4729
1148.36	48.0393
1151.25	11.8806
1154.14	30.0684
1157.04	52.1777
1159.93	20.0808
1162.82	47.5691
1165.71	18.9062
1168.61	17.3237
1171.5	23.2161
1174.39	35.1177
1177.28	28.3599
1180.18	33.3027
1183.07	28.4959
1185.96	19.8447
1188.85	33.9133
1191.75	51.6394
1194.64	61.5696
1197.53	63.5637
1200.42	49.0552
1203.32	57.6028
1206.21	68.8992
1209.1	11.3223
1212	11.1604
1214.89	66.2551
1217.78	46.2532
1220.67	20.7234
1223.57	6.04688
1226.46	34.8162
1229.35	39.6226
1232.24	77.0081
1235.14	61.1294
1238.03	56.8171
1240.92	12.124
1243.82	45.2046
1246.71	0
