Measurement: Raman, 780 nm, unoriented, Raman Data Processed
Mineral: Fluorcalciomicrolite
Rruff sample: R120163
Ideal chemistry: (Ca,Na)_2_Ta^5+^_2_O_6_F
Locality: Alto Ligonha, Mozambique
Source: Marcus Origlieri
Description: Reddish brown octahedral fragment
Measured chemistry: (Ca_1.16_Na_0.70_)_Σ1.86_(Ta_1.56_Nb_0.25_Ti_0.13_Sn_0.06_)_Σ2_(O_5.84_(OH)_0.16_)_Σ6_(F_0.82_(OH)_0.18_)
Raman shift (cm-1)	intensity
98.9134	2995.13
102.288	3037.24
105.663	3077.46
109.038	3118.83
112.413	3112.41
115.787	3141.79
119.162	3136.56
122.537	3172.72
125.912	3176.17
129.287	3179.49
132.662	3196.08
136.036	3217.04
139.411	3251.03
142.786	3284.13
146.161	3347.9
149.536	3407.89
152.911	3427.26
156.285	3497.65
159.66	3538.26
163.035	3604.61
166.41	3645.1
169.785	3692.78
173.159	3736.7
176.534	3823.46
179.909	3879.16
183.284	3992.54
186.659	4061.21
190.033	4187.83
193.408	4267.45
196.783	4374.73
200.158	4446.25
203.533	4526.37
206.907	4636.67
210.282	4741.4
213.657	4795.52
217.032	4858.11
220.407	4972.55
223.782	5107.8
227.156	5222.55
230.531	5370.73
233.906	5528.51
237.281	5719.82
240.656	5945.64
244.03	6140.24
247.405	6357.23
250.78	6595.15
254.155	6743.15
257.53	6935.08
260.904	7064.41
264.279	7211.33
267.654	7347.66
271.029	7493.88
274.404	7580.36
277.779	7653.81
281.153	7770.32
284.528	7863.06
287.903	7972.21
291.278	8078.52
294.653	8149.25
298.027	8220.3
301.402	8228.49
304.777	8196.8
308.152	8166.2
311.527	8093.05
314.902	8000.08
318.276	7910.1
321.651	7884.27
325.026	7899.23
328.401	7981.08
331.776	8156.97
335.151	8429.63
338.525	8936.62
341.9	9530.29
345.275	10144.9
348.65	10635.6
352.024	10863.2
355.399	10906.6
358.774	10845.5
362.149	10754
365.524	10686.4
368.899	10594.3
372.273	10451.4
375.648	10332.8
379.023	10187.5
382.398	9980.01
385.773	9850.34
389.147	9685.79
392.522	9559.23
395.897	9491.65
399.272	9420.97
402.647	9414.69
406.022	9426.84
409.396	9508.24
412.771	9638.23
416.146	9799
419.521	9986.46
422.896	10270.1
426.27	10475.8
429.645	10758
433.02	10941.3
436.395	11034.5
439.77	11117.1
443.144	11155.8
446.519	11125.2
449.894	11108.6
453.269	11093.5
456.644	11052
460.019	10956.9
463.393	10857.3
466.768	10754.9
470.143	10588.9
473.518	10454.6
476.893	10227.5
480.267	10124.3
483.642	9946.67
487.017	9803.96
490.392	9687.6
493.767	9559.9
497.142	9526.98
500.516	9524.1
503.891	9541.52
507.266	9550.99
510.641	9631.01
514.016	9752.61
517.39	9881.46
520.765	10088.4
524.14	10341
527.515	10594.7
530.89	10698.5
534.264	10736.3
537.639	10630.1
541.014	10329.9
544.389	10005
547.764	9595.85
551.139	9251.53
554.513	8930.69
557.888	8652.32
561.263	8421.06
564.638	8243.11
568.013	8082.82
571.388	7949.45
574.762	7873.96
578.137	7800.1
581.512	7766.92
584.887	7754.23
588.261	7745.67
591.636	7778.04
595.011	7844.26
598.386	7883.78
601.761	8021.32
605.136	8185.86
608.51	8366.95
611.885	8589.12
615.26	8716.38
618.635	8851.41
622.01	8937.35
625.385	8936.1
628.759	8863.67
632.134	8817
635.509	8711.55
638.884	8587.93
642.259	8467.99
645.633	8254.47
649.008	8058.58
652.383	7762.66
655.758	7462.15
659.133	7206.6
662.507	6953.41
665.882	6695.71
669.257	6459.22
672.632	6310.4
676.007	6140.67
679.381	5995.8
682.756	5866.14
686.131	5713.88
689.506	5616.59
692.881	5510.3
696.256	5442.75
699.63	5360.63
703.005	5272.24
706.38	5202.93
709.755	5134.59
713.13	5063.82
716.505	5010.69
719.879	4957.39
723.254	4883.76
726.629	4813.23
730.004	4745.59
733.379	4673.11
736.753	4609.48
740.128	4524.21
743.503	4462.56
746.878	4370.04
750.253	4341.72
753.627	4241.27
757.002	4188.04
760.377	4133.48
763.752	4105.62
767.127	4092.26
770.501	4047.8
773.876	4018.26
777.251	4001.03
780.626	3980.59
784.001	3964.24
787.376	3971.16
790.75	4000.38
794.125	3966.62
797.5	3973.29
800.875	3965.41
804.25	3976.19
807.625	3976.94
810.999	3958.09
814.374	3972.7
817.749	4008.88
821.124	4019.14
824.499	4003.57
827.873	4008.85
831.248	4041.18
834.623	4022.5
837.998	4029.66
841.373	4051.8
844.747	4067.81
848.122	4105.82
851.497	4178.49
854.872	4220.92
858.247	4289.19
861.621	4385.88
864.996	4461.21
868.371	4554.59
871.746	4672.98
875.121	4764.84
878.495	4816.15
881.87	4835.37
885.245	4868.23
888.62	4873.17
891.995	4902.36
895.37	4926.71
898.744	4976.01
902.119	5013.06
905.494	5095.49
908.869	5144.15
912.244	5206.08
915.619	5285.19
918.993	5330.95
922.368	5396.24
925.743	5480.9
929.118	5554.43
932.493	5651.34
935.867	5737.19
939.242	5861.98
942.617	5954.55
945.992	6062.41
949.367	6174.17
952.741	6316.35
956.116	6415.2
959.491	6585.37
962.866	6720.6
966.241	6922.77
969.615	7029.65
972.99	7194.63
976.365	7371.77
979.74	7575.45
983.115	7758.01
986.49	7918.76
989.864	8133.54
993.239	8369.83
996.614	8555.83
999.989	8812.31
1003.36	8999.38
1006.74	9242.94
1010.11	9495.63
1013.49	9720.09
1016.86	9996.3
1020.24	10251.9
1023.61	10550
1026.99	10847.9
1030.36	11224.1
1033.74	11523.6
1037.11	11933.1
1040.49	12205.3
1043.86	12640.8
1047.24	13008.6
1050.61	13420.9
1053.99	13869.1
1057.36	14336.5
1060.74	14725.8
1064.11	15083.6
1067.48	15436.1
1070.86	15804.3
1074.23	16052.3
1077.61	16267.5
1080.98	16496.4
1084.36	16688.8
1087.73	16897.6
1091.11	17033.3
1094.48	17216
1097.86	17441.5
1101.23	17772.6
1104.61	18122.7
1107.98	18718.5
1111.36	19272.8
1114.73	19939.5
1118.11	20755.5
1121.48	21717.4
1124.86	22790.3
1128.23	23956.3
1131.61	25096.8
1134.98	26306.8
1138.36	27646
1141.73	28906
1145.11	30057.2
1148.48	31224.4
1151.86	32229.5
1155.23	32937.8
1158.61	33507.9
1161.98	33968.7
1165.36	34338.2
1168.73	34962
1172.1	35396.5
1175.48	35913.9
1178.85	36794.7
1182.23	37551
1185.6	38654.9
1188.98	40206.1
1192.35	41914.1
1195.73	44057.2
1199.1	46324.9
1202.48	48969.4
1205.85	51723
1209.23	54717.9
1212.6	57981.4
1215.98	61334.4
1219.35	64356.7
1222.73	67677.6
1226.1	70552.4
1229.48	72901.4
1232.85	75006.2
1236.23	76595.9
1239.6	77374.1
1242.97	77525.6
1246.35	77298.3
1249.72	76596.2
1253.1	75685.3
1256.47	74932.7
1259.85	74042.5
1263.22	73374.7
1266.6	72946.1
1269.97	72967.7
1273.35	73522.1
1276.72	74601.5
1280.1	76007.1
1283.47	78240
