Measurement: Raman, 780 nm, unoriented, Raman Data Processed
Mineral: Fluocerite-(Ce)
Rruff sample: R110058
Ideal chemistry: Ce^3+^F_3_
Locality: Little Patsy pegmatite, South Platte Pegmatite District, Jefferson County, Colorado, USA
Source: Rudy Bolona and Don Doell
Description: Tan colored massive
Raman shift (cm-1)	intensity
183.688	12767.6
186.581	12816.6
189.473	12739.3
192.366	12669.3
195.259	12604.8
198.151	12488.2
201.044	12465.1
203.937	12438
206.829	12499.8
209.722	12526.9
212.615	12585.6
215.507	12669
218.4	12697.1
221.293	12708
224.186	12602.8
227.078	12768.5
229.971	12781.6
232.864	12830.9
235.756	12907.4
238.649	13022.6
241.542	13098.6
244.435	13194.8
247.327	13368.7
250.22	13537.8
253.113	13627.1
256.005	13736.4
258.898	14007
261.791	14162.3
264.683	14248.7
267.576	14378.6
270.469	14484.9
273.361	14382.9
276.254	14413
279.147	14356.6
282.04	14277.2
284.932	14200.6
287.825	14134.9
290.718	13978.8
293.61	13771.8
296.503	13771.6
299.396	13614.5
302.288	13474.6
305.181	13426.9
308.074	13276.4
310.967	13273.5
313.859	13274.1
316.752	13171.4
319.645	13147.7
322.537	13227.6
325.43	13145.9
328.323	13233.3
331.216	13212.5
334.108	13299.1
337.001	13357.4
339.894	13358.1
342.786	13304.1
345.679	13240
348.572	13305.7
351.464	13241.5
354.357	13183.9
357.25	13204.9
360.142	13015.2
363.035	12991.9
365.928	12921.8
368.821	12723.5
371.713	12632.1
374.606	12445.2
377.499	12294.9
380.391	12188.5
383.284	12092.6
386.177	11965.5
389.07	11908.2
391.962	11767.8
394.855	11648.3
397.748	11586.1
400.64	11517.4
403.533	11500.3
406.426	11444.9
409.318	11341.3
412.211	11293.6
415.104	11227.6
417.997	11216.7
420.889	11106.8
423.782	11135.4
426.675	11005.2
429.567	11039.6
432.46	11034.6
435.353	11024.1
438.245	10956.9
441.138	11007.9
444.031	10954.5
446.923	10990.6
449.816	10974.6
452.709	11017.9
455.602	10999.7
458.494	10850.6
461.387	10721.1
464.28	10509.7
467.172	10388
470.065	10194.7
472.958	10171.6
475.851	9960.04
478.743	9797.98
481.636	9726.26
484.529	9687.69
487.421	9534.92
490.314	9490.42
493.207	9368.71
496.099	9353.66
498.992	9358.09
501.885	9176.06
504.777	9192.23
507.67	9163.41
510.563	9116.54
513.456	9073.55
516.348	9081.4
519.241	8953.18
522.134	8922.01
525.026	8885.65
527.919	8837.81
530.812	8818.02
533.705	8722.7
536.597	8693.68
539.49	8623.25
542.383	8572.83
545.275	8541.67
548.168	8529.51
551.061	8450.48
553.953	8409.81
556.846	8413.25
559.739	8392.02
562.631	8249.24
565.524	8225.4
568.417	8225.19
571.31	8070.95
574.202	8019.78
577.095	8070.06
579.988	8028.37
582.88	7918.69
585.773	7957.07
588.666	7940.23
591.558	7840.44
594.451	7905.57
597.344	7869.24
600.237	7804.47
603.129	7780.32
606.022	7833.27
608.915	7880.62
611.807	7931.84
614.7	7959.94
617.593	7978.27
620.486	8025.1
623.378	8089.42
626.271	8114.55
629.164	8136.02
632.056	8149.99
634.949	8110.9
637.842	8166.39
640.734	8166.86
643.627	8131.5
646.52	8046.56
649.413	8066.68
652.305	7999.9
655.198	7983.06
658.091	7859.32
660.983	7791.27
663.876	7677.99
666.769	7625.81
669.661	7568.33
672.554	7483.31
675.447	7490.39
678.34	7432.37
681.232	7399.04
684.125	7362.16
687.018	7365.27
689.91	7318.55
692.803	7328.36
695.696	7271.34
698.588	7248.54
701.481	7267.75
704.374	7258.62
707.266	7153.03
710.159	7187.87
713.052	7116.87
715.945	7142.49
718.837	7074.7
721.73	7000.53
724.623	6946.67
727.515	6919.26
730.408	6799.59
733.301	6753.1
736.193	6733.16
739.086	6548.63
741.979	6516.51
744.872	6444.22
747.764	6347.61
750.657	6301.05
753.55	6269.66
756.442	6209.18
759.335	6161.31
762.228	6143.98
765.12	6123.5
768.013	6093.33
770.906	6024.71
773.799	6004.86
776.691	6078.59
779.584	6000.16
782.477	5946.05
785.369	5957.88
788.262	5930.46
791.155	5910.08
794.048	5913.13
796.94	5928.68
799.833	5888.6
802.726	5851.24
805.618	5871.82
808.511	5879.94
811.404	5865.51
814.296	5866.31
817.189	5851.35
820.082	5880.58
822.975	5829.66
825.867	5858.67
828.76	5895.23
831.653	5932.21
834.545	5973.69
837.438	5920.27
840.331	5975.83
843.223	5979.3
846.116	5907.91
849.009	5967.23
851.902	6021.07
854.794	6004.27
857.687	6094.53
860.58	6056.24
863.472	6109.59
866.365	6089.79
869.258	6133.62
872.15	6141.36
875.043	6218.5
877.936	6256.51
880.829	6206.34
883.721	6270.29
886.614	6330.9
889.507	6257.58
892.399	6381.37
895.292	6348.07
898.185	6455.14
901.077	6462.95
903.97	6529.1
906.863	6581.88
909.756	6549.71
912.648	6623.7
915.541	6665.79
918.434	6668
921.326	6786.58
924.219	6745.38
927.112	6779.85
930.005	6902.81
932.897	6917.7
935.79	7034.08
938.683	7012.07
941.575	7100.51
944.468	7208.47
947.361	7240.92
950.253	7212.26
953.146	7358.36
956.039	7410.42
958.932	7449.67
961.824	7482.26
964.717	7583.09
967.61	7661.62
970.502	7822.19
973.395	7798.16
976.288	7851.18
979.18	7940.85
982.073	8065.49
984.966	8155.05
987.859	8203.44
990.751	8313.64
993.644	8437.86
996.537	8520.14
999.429	8550.61
1002.32	8702.1
1005.22	8779.11
1008.11	8960.47
1011	9087.52
1013.89	9159.84
1016.78	9321.95
1019.68	9385.5
1022.57	9528.89
1025.46	9656.99
1028.36	9842.61
1031.25	9916.65
1034.14	10165.3
1037.03	10337
1039.93	10435.4
1042.82	10637.6
1045.71	10797.5
1048.61	11026.5
1051.5	11199.2
1054.39	11447.8
1057.28	11645.5
1060.18	11907.7
1063.07	12216.6
1065.96	12316
1068.85	12672.1
1071.75	12936.8
1074.64	13272.1
1077.53	13647.9
1080.42	13984
1083.32	14289.4
1086.21	14660.9
1089.1	15124.4
1092	15514.9
1094.89	16072.4
1097.78	16547.8
1100.67	17071.8
1103.57	17720
1106.46	18454
1109.35	19200.5
1112.24	20125.7
1115.14	20808.3
1118.03	21846.8
1120.92	22876.4
1123.82	24076.4
1126.71	25287.5
1129.6	26835.2
1132.49	28309.5
1135.39	30331.3
1138.28	32274.6
1141.17	34708.5
1144.06	37356.6
1146.96	40391.7
1149.85	43707.1
1152.74	47508.3
1155.63	51591.5
1158.53	56342.7
1161.42	61401
1164.31	66335.6
1167.21	71967.6
1170.1	77631.2
1172.99	82993.7
1175.88	88548
1178.78	93745.9
1181.67	98279.7
1184.56	102084
1187.45	104947
1190.35	107038
1193.24	108414
1196.13	110303
1199.03	113352
1201.92	117860
1204.81	124518
1207.7	133705
1210.6	145939
1213.49	160374
1216.38	176678
1219.27	192058
1222.17	205046
1225.06	212331
1227.95	212052
1230.85	204237
1233.74	191330
1236.63	176968
1239.52	164185
1242.42	154407
1245.31	148694
1248.2	146018
1251.09	145651
1253.99	146477
1256.88	148398
1259.77	148973
1262.66	148836
1265.56	148399
1268.45	146136
1271.34	143446
1274.24	139587
1277.13	135429
1280.02	131219
1282.91	127035
