Measurement: Raman, 780 nm, unoriented, Raman Data RAW
Mineral: Fluorapatite
Rruff sample: R050401
Ideal chemistry: Ca_5_(PO_4_)_3_F
Locality: Urbano mine, Golconda District, Minas Gerais, Brazil
Source: Bob Downs
Description: Pale purple hexagonal prism associated with albite R050402
Measured chemistry: (Ca_0.99_Mn_0.01_)_5_(P_1.00_O_4_)_3_F_1.00_
Raman shift (cm-1)	intensity
143.628	402.027
146.52	387.936
149.413	384.424
152.306	388.732
155.199	381.524
158.091	368.032
160.984	373.312
163.877	359.567
166.769	358.932
169.662	379.911
172.555	380.488
175.447	380.99
178.34	389.387
181.233	404.397
184.126	410.486
187.018	419.008
189.911	422.22
192.804	446.607
195.696	463.712
198.589	476.813
201.482	501.659
204.375	542.548
207.267	547.362
210.16	575.647
213.053	617.435
215.945	639.258
218.838	667.127
221.731	701.437
224.623	705.672
227.516	776.917
230.409	838.226
233.302	871.3
236.194	939.111
239.087	1009.61
241.98	1065.01
244.872	1155.58
247.765	1170.34
250.658	1211.42
253.55	1217.92
256.443	1197.06
259.336	1148.28
262.228	1151.73
265.121	1106.26
268.014	1087.46
270.907	1151.23
273.799	1176.79
276.692	1212.89
279.585	1298.22
282.477	1377.7
285.37	1502.35
288.263	1636.05
291.156	1766.68
294.048	1952.8
296.941	2152.23
299.834	2369.12
302.726	2602.85
305.619	2920.81
308.512	3286.64
311.404	3656.23
314.297	4152.54
317.19	4655.94
320.082	5110.71
322.975	5567.07
325.868	5870.93
328.761	5950.96
331.653	5778.46
334.546	5551.69
337.439	5208.18
340.331	4971.6
343.224	4628.55
346.117	4445.08
349.01	4256.25
351.902	4177.49
354.795	4190.35
357.688	4259.18
360.58	4285.62
363.473	4383.46
366.366	4458.02
369.258	4417.43
372.151	4396.21
375.044	4214.6
377.937	3967.44
380.829	3803.08
383.722	3585.44
386.615	3425.94
389.507	3225.46
392.4	3176
395.293	3111.02
398.185	3079.73
401.078	3089.41
403.971	3101.76
406.863	3134.68
409.756	3070.37
412.649	3035.43
415.542	2932.81
418.434	2826.85
421.327	2727.06
424.22	2650.76
427.112	2534.41
430.005	2480.42
432.898	2401.35
435.791	2328.07
438.683	2247.04
441.576	2170.65
444.469	2133.75
447.361	2061.57
450.254	2016.8
453.147	1937.66
456.039	1877.82
458.932	1797.91
461.825	1718.89
464.717	1669.08
467.61	1565.12
470.503	1556.48
473.396	1493.21
476.288	1440.93
479.181	1405.37
482.074	1366.68
484.966	1325.52
487.859	1316.39
490.752	1291.07
493.644	1252.71
496.537	1259.06
499.43	1224.38
502.323	1194.09
505.215	1209.56
508.108	1197.31
511.001	1218.55
513.893	1177.17
516.786	1176.29
519.679	1181.33
522.572	1169.84
525.464	1192.56
528.357	1172.73
531.25	1191.82
534.142	1173.29
537.035	1161.46
539.928	1153.26
542.82	1148.66
545.713	1142.04
548.606	1155.04
551.499	1152.76
554.391	1151.02
557.284	1143.53
560.177	1146.23
563.069	1145.63
565.962	1177.6
568.855	1153.29
571.747	1148.77
574.64	1160.63
577.533	1153.8
580.426	1181.06
583.318	1144.19
586.211	1131.66
589.104	1108.97
591.996	1118.16
594.889	1118.7
597.782	1092.01
600.674	1108.37
603.567	1084.96
606.46	1119.6
609.352	1088.85
612.245	1077.47
615.138	1082.05
618.03	1058.35
620.923	1048.92
623.816	1013.47
626.709	1041.2
629.601	1018.2
632.494	1009.73
635.387	996.056
638.279	1021.78
641.172	1013.41
644.065	988.551
646.957	985.078
649.85	983.878
652.743	1000.18
655.636	1002.71
658.528	977.553
661.421	985.201
664.314	987.408
667.206	978.438
670.099	1001.1
672.992	1018.79
675.885	1048.36
678.777	1056.66
681.67	1085.05
684.563	1127.44
687.455	1146.25
690.348	1190.86
693.241	1218.26
696.133	1277.26
699.026	1244.36
701.919	1263.68
704.812	1254.3
707.704	1240.53
710.597	1173.39
713.49	1179.06
716.382	1129.67
719.275	1090.07
722.168	1094.33
725.06	1053.25
727.953	1064.09
730.846	1060.01
733.739	1058.79
736.631	1072.44
739.524	1068.7
742.417	1058.6
745.309	1005
748.202	1000.84
751.095	971.559
753.987	939.389
756.88	895.92
759.773	867.447
762.665	849.912
765.558	832.326
768.451	806.511
771.344	785.208
774.236	768.401
777.129	763.138
780.022	742.064
782.914	729.849
785.807	686.895
788.7	663.656
791.592	629.785
794.485	630.027
797.378	603.236
800.271	592.23
803.163	541.13
806.056	516.287
808.949	517.013
811.841	491.146
814.734	497.009
817.627	469.476
820.519	463.665
823.412	453.926
826.305	451.87
829.198	432.942
832.09	428.738
834.983	421.203
837.876	406.914
840.768	410.15
843.661	398.728
846.554	386.792
849.447	395.522
852.339	398.208
855.232	379.483
858.125	388.801
861.017	390.186
863.91	366.384
866.803	365.402
869.695	369.351
872.588	367.033
875.481	369.794
878.374	365.887
881.266	353.754
884.159	347.292
887.052	351.363
889.944	344.014
892.837	344.049
895.73	335.458
898.622	353.18
901.515	333.826
904.408	349.678
907.301	334.844
910.193	355.116
913.086	347.191
915.979	346.208
918.871	354.148
921.764	349.403
924.657	352.485
927.549	354.684
930.442	342.926
933.335	366.861
936.227	352.416
939.12	357.058
942.013	360.223
944.906	359.833
947.798	370.635
950.691	382.819
953.584	410.783
956.476	424.556
959.369	462.474
962.262	563.118
965.154	727.833
968.047	625.301
970.94	475.65
973.833	418.813
976.725	415.033
979.618	408.277
982.511	420.519
985.403	416.514
988.296	414.649
991.189	436.791
994.082	450.008
996.974	459.709
999.867	475.359
1002.76	474.211
1005.65	482.723
1008.54	493.702
1011.44	514.284
1014.33	532.888
1017.22	540.743
1020.12	557.901
1023.01	594.583
1025.9	585.772
1028.79	621.476
1031.69	640.895
1034.58	686.88
1037.47	726.346
1040.37	728.144
1043.26	758.125
1046.15	800.527
1049.04	808.363
1051.94	858.238
1054.83	898.37
1057.72	946.771
1060.61	969.464
1063.51	994.848
1066.4	1034.63
1069.29	1093.95
1072.18	1114.82
1075.08	1169.47
1077.97	1182.45
1080.86	1265.48
1083.76	1277.87
1086.65	1343.02
1089.54	1384.76
1092.43	1449.06
1095.33	1475.73
1098.22	1522.81
1101.11	1559.94
1104	1573.06
1106.9	1639.14
1109.79	1676.6
1112.68	1745.9
1115.58	1774.61
1118.47	1803.28
1121.36	1864.4
1124.25	1922.44
1127.15	1970.08
1130.04	2075.9
1132.93	2128.48
1135.82	2273.24
1138.72	2356.85
1141.61	2419.78
1144.5	2547.99
1147.39	2650.39
1150.29	2800.87
1153.18	2955.99
1156.07	3114.61
1158.96	3308.24
1161.86	3529.3
1164.75	3711.34
1167.64	3958.16
1170.54	4205.06
1173.43	4495.5
1176.32	4776.22
1179.21	5087.97
1182.11	5361.6
1185	5655.17
1187.89	5942.51
1190.79	6229.9
1193.68	6363.52
1196.57	6567.84
1199.46	6752.56
1202.36	6914.84
1205.25	7043.63
1208.14	7221.39
1211.03	7354.65
1213.93	7486.99
1216.82	7723.13
1219.71	7935.01
1222.61	8168.87
1225.5	8430.38
1228.39	8795.1
1231.28	9380.1
1234.18	9738.1
1237.07	10380.4
1239.96	11116.9
1242.85	11894.3
1245.75	12918.9
1248.64	14040.4
1251.53	15349.7
1254.42	16955.5
1257.32	18845.2
1260.21	21148.9
1263.1	23961.4
1265.99	27231.2
1268.89	31356.7
1271.78	36428.8
1274.67	42361.9
1277.57	49685.8
1280.46	58043.3
1283.35	67715.2
1286.24	78028.7
