Measurement: Raman, 532 nm, unoriented, Raman Data Processed
Mineral: Fluorapatite
Rruff sample: R060421
Ideal chemistry: Ca_5_(PO_4_)_3_F
Locality: Levant mine, St. Just, Cornwall, England
Source: Michael Scott
Description: Brown hexagonal prisms
Measured chemistry: (Ca_4.93_[box]_0.07_)_Σ=5_((PO_4_)_2.86_(CO_3_)_0.14_)_Σ=3_F_1.00_ ; C not measured but estimated by difference and charge balance
Raman shift (cm-1)	intensity
177.334	0
180.227	62.8887
183.119	19.0479
186.012	21.751
188.905	97.1074
191.798	239.727
194.69	173.792
197.583	160.906
200.476	118.36
203.369	133.455
206.261	142.418
209.154	112.303
212.047	86.4512
214.939	105.156
217.832	130.924
220.725	135.352
223.617	126.67
226.51	83.084
229.403	118.459
232.296	53.1562
235.188	54.4062
238.081	52.9316
240.974	84.6269
243.866	107.598
246.759	86.2695
249.652	63.5
252.544	13.7168
255.437	42.5605
258.33	63.2988
261.223	83.9394
264.115	115.654
267.008	136.315
269.901	92.7266
272.793	71.3555
275.686	66.0566
278.579	9.57812
281.471	8.05859
284.364	11.5723
287.257	68.9258
290.15	95.8125
293.042	78.6133
295.935	29.6387
298.828	36.8398
301.72	3.69141
304.613	40.4707
307.506	39.2695
310.399	93.7715
313.291	83.793
316.184	138.277
319.077	151.797
321.969	145.975
324.862	96.1231
327.755	133.115
330.647	106.352
333.54	104.49
336.433	42.2852
339.325	18.4414
342.218	44.3145
345.111	6.52539
348.004	83.2539
350.896	91.1055
353.789	110.836
356.682	162.715
359.574	102.74
362.467	91.168
365.36	94.0234
368.253	55.7168
371.145	55.373
374.038	90.0742
376.931	55.6973
379.823	107.988
382.716	49.6758
385.609	58.9746
388.502	54.7598
391.394	42.7012
394.287	32.2676
397.18	51.3926
400.072	46.7617
402.965	67.6523
405.858	80.8867
408.75	31.7832
411.643	72.8789
414.536	57.4785
417.428	3.51367
420.321	15.5605
423.214	37.2227
426.107	28.791
428.999	77.8359
431.892	105.785
434.785	111.977
437.677	212.156
440.57	200.088
443.463	168.397
446.356	165.525
449.248	154.932
452.141	135.262
455.034	84.7031
457.926	75.5996
460.819	3.73828
463.712	16.9336
466.604	89.207
469.497	90.4082
472.39	114.91
475.283	87.7734
478.175	86.4316
481.068	70.2363
483.961	71.8926
486.853	53.7305
489.746	135.459
492.639	170.391
495.531	181.332
498.424	255.654
501.317	155.762
504.21	118.096
507.102	66.7969
509.995	157.91
512.888	269.838
515.78	297.397
518.673	217.74
521.566	241.635
524.458	284.377
527.351	307.898
530.244	200.441
533.137	267.894
536.029	283.35
538.922	244.471
541.815	229.897
544.707	220.453
547.6	275.789
550.493	283.648
553.386	280.422
556.278	220.777
559.171	226.863
562.064	245.211
564.956	256.168
567.849	313.207
570.742	338.008
573.635	268.609
576.527	220.672
579.42	258.66
582.313	282.32
585.205	209.711
588.098	320.84
590.991	208.812
593.883	153.008
596.776	157.074
599.669	230.961
602.562	133.402
605.454	95.1641
608.347	121.481
611.24	88.9648
614.132	128.121
617.025	94.4609
619.918	34.0781
622.81	20.2852
625.703	28.9414
628.596	3.58594
631.489	6.58984
634.381	26.832
637.274	94.1719
640.167	118.066
643.059	202.273
645.952	193.148
648.845	39.8555
651.737	86.9961
654.63	83.9062
657.523	104.836
660.416	198.172
663.308	158.68
666.201	87.2227
669.094	64.875
671.986	41.7891
674.879	206.934
677.772	154.273
680.664	190.852
683.557	298.102
686.45	229.234
689.343	319.285
692.235	276.758
695.128	144.188
698.021	206.582
700.913	207.758
703.806	265.586
706.699	297.086
709.592	221.062
712.484	175.734
715.377	179.688
718.27	162.152
721.162	5.38672
724.055	24.3789
726.948	18.207
729.841	63.9688
732.733	27.0898
735.626	64.2773
738.519	97.4766
741.411	29.0391
744.304	37.6523
747.197	2.39844
750.089	5.13672
752.982	44.6523
755.875	93.5039
758.768	90.0938
761.66	29.8672
764.553	117.68
767.446	115.82
770.338	132.539
773.231	69.375
776.124	6.98438
779.016	86.5977
781.909	141.188
784.802	117.176
787.694	53.3555
790.587	137.754
793.48	143.387
796.373	154.234
799.265	209.203
802.158	218.715
805.051	100.598
807.943	120.766
810.836	112.523
813.729	123.965
816.621	98.0547
819.514	140.777
822.407	188.871
825.3	76.5508
828.192	27.1836
831.085	154.531
833.978	78.6875
836.87	10.3633
839.763	51.3594
842.656	127.301
845.549	42.2305
848.441	3.51562
851.334	70.6953
854.227	89.4961
857.119	62.0508
860.012	28.4961
862.905	46.332
865.798	121.059
868.69	154.223
871.583	216.496
874.476	211.672
877.368	187.777
880.261	236.363
883.154	150.938
886.046	150.516
888.939	172.414
891.832	154.516
894.725	145.617
897.617	164.246
900.51	208.918
903.403	218.984
906.295	234.891
909.188	245.309
912.081	203.012
914.973	159.676
917.866	189.898
920.759	238.562
923.652	215.762
926.544	254.242
929.437	255.258
932.33	260.82
935.222	218.356
938.115	92.6094
941.008	64.6133
943.9	74.582
946.793	87.375
949.686	102.359
952.579	239.602
955.471	361.691
958.364	600.848
961.257	989.582
964.149	1399.69
967.042	1211.62
969.935	660.383
972.827	400.941
975.72	295.981
978.613	199.371
981.506	161.875
984.398	147.394
987.291	90.2656
990.184	71.1523
993.077	74.7891
995.969	120.152
998.862	111.176
1001.75	98.5859
1004.65	26.0352
1007.54	46.2383
1010.43	63.8672
1013.33	135.746
1016.22	142.16
1019.11	77.6328
1022	95.6406
1024.9	41.8164
1027.79	153.148
1030.68	143.75
1033.57	119.543
1036.47	213.723
1039.36	70.5508
1042.25	78.9961
1045.14	55.8828
1048.04	33.3281
1050.93	21.7891
1053.82	78.9844
1056.72	90.5352
1059.61	139.734
1062.5	114.848
1065.39	26.7305
1068.29	3.67969
1071.18	204.238
1074.07	142.019
1076.96	166.207
1079.86	154.801
1082.75	145.688
1085.64	166.457
1088.54	92.5273
1091.43	35.668
1094.32	91.3047
1097.21	23.043
1100.11	83.8281
1103	37.5312
1105.89	186.078
1108.79	148.781
1111.68	149.738
1114.57	52.3047
1117.46	68.957
1120.36	158.547
1123.25	132.981
1126.14	63.4258
1129.03	150.602
1131.93	118.731
1134.82	77.9375
1137.71	6.84766
1140.6	2.22656
1143.5	84.6211
1146.39	67.8945
1149.28	136.402
1152.17	27.3438
1155.07	34.125
1157.96	2.28125
1160.85	25.0977
1163.75	118.129
1166.64	84.457
1169.53	44.7227
1172.42	75.5078
1175.32	100.777
1178.21	23.332
1181.1	98.4141
1183.99	93.4648
1186.89	100.812
1189.78	62.9766
1192.67	178.258
1195.57	121.477
1198.46	160.859
1201.35	100.539
1204.24	99.5859
1207.14	64.6562
1210.03	125.039
1212.92	164.559
1215.82	173.738
1218.71	67.1094
1221.6	75.5117
1224.49	131.648
1227.38	107.723
1230.28	81.1367
1233.17	76.1758
1236.06	44.9492
1238.96	80.957
1241.85	80.3047
1244.74	71.9297
1247.63	146.227
1250.53	93.1602
1253.42	59.8906
1256.31	17.9648
1259.2	71.75
1262.1	212.586
1264.99	121.344
1267.88	122.004
1270.78	100.391
1273.67	122.504
1276.56	163.305
1279.45	132.723
1282.35	54.8086
1285.24	100.957
1288.13	142.699
1291.03	112.496
1293.92	104.227
1296.81	1.95312
1299.7	63.4609
1302.6	0
