Measurement: Raman, 780 nm, unoriented, Raman Data Processed
Mineral: Fluorite
Rruff sample: R050115
Ideal chemistry: CaF_2_
Locality: Isthak Valley Iskardu, N.A. Gilgit, Pakistan
Source: Syed Shah
Description: Colorless fragment
Measured chemistry: CaF_2_
Raman shift (cm-1)	intensity
109.345	0
112.72	74.4077
116.095	111.795
119.469	404.429
122.844	452.961
126.219	394.056
129.594	198.082
132.969	250.669
136.344	248.984
139.718	374.221
143.093	661.415
146.468	1044.11
149.843	1624.17
153.218	2447.2
156.593	2948.99
159.967	3227.39
163.342	2833.73
166.717	2276.31
170.092	1663.8
173.467	1203.98
176.841	854.066
180.216	456.542
183.591	213.895
186.966	68.1397
190.341	154.554
193.715	120.736
197.09	19.1367
200.465	38.1582
203.84	185.658
207.215	212.293
210.59	41.9902
213.964	60.1016
217.339	113.736
220.714	140.033
224.089	291.117
227.464	463.055
230.839	695.511
234.213	1000.34
237.588	1243.97
240.963	1607.37
244.338	1858.46
247.713	1944.75
251.087	1900.47
254.462	1867.63
257.837	1956.7
261.212	1871.27
264.587	1876.23
267.962	1776.45
271.336	1616.47
274.711	1505.4
278.086	1323.37
281.461	1012.7
284.836	877.905
288.21	790.166
291.585	882.531
294.96	937.697
298.335	1206.09
301.71	1416.31
305.084	1775.84
308.459	2051.03
311.834	2185.57
315.209	2265.63
318.584	2523.67
321.959	2465.07
325.333	1639.4
328.708	1034.06
332.083	663.131
335.458	419.64
338.833	279.478
342.207	229.86
345.582	92.5557
348.957	7.11914
352.332	9.0332
355.707	10.7041
359.082	15.1123
362.456	45.4717
365.831	63.4707
369.206	7.95898
372.581	87.2568
375.956	73.6377
379.33	175.993
382.705	248.589
386.08	197.463
389.455	269.613
392.83	225.85
396.205	253.504
399.579	208.552
402.954	192.685
406.329	54.9531
409.704	75.8291
413.079	145.107
416.454	149.786
419.828	21.2061
423.203	8.05957
426.578	95.3389
429.953	19.4209
433.328	6.49023
436.702	56.3018
440.077	29.6846
443.452	63.5303
446.827	46.7607
450.202	87.5478
453.577	81.0996
456.951	140.971
460.326	166.807
463.701	164.306
467.076	198.718
470.451	203.348
473.825	196.012
477.2	247.998
480.575	265.087
483.95	207.119
487.325	186.902
490.7	216.849
494.074	141.025
497.449	125.275
500.824	136.501
504.199	62.3145
507.574	79.4805
510.948	16.9678
514.323	89.1748
517.698	123.426
521.073	55.7378
524.448	37.1514
527.822	33.3023
531.197	45.811
534.572	50.0991
537.947	46.8105
541.322	93.5938
544.697	57.8257
548.071	71.7861
551.446	147.72
554.821	160.053
558.196	144.36
561.571	107.601
564.946	157.977
568.32	135.225
571.695	64.4092
575.07	58.0151
578.445	95.7471
581.82	4.71533
585.194	48.4605
588.569	37.2105
591.944	0.183594
595.319	17.7236
598.694	32.0386
602.068	44.6733
605.443	8.98096
608.818	11.4863
612.193	76.54
615.568	477.082
618.943	85.7519
622.317	169.205
625.692	216.087
629.067	239.299
632.442	285.416
635.817	340.867
639.192	407.991
642.566	519.95
645.941	517.627
649.316	562.819
652.691	552.066
656.066	574.822
659.44	620.11
662.815	734.802
666.19	738.398
669.565	834.261
672.94	856.776
676.314	905.424
679.689	942.281
683.064	935.389
686.439	920.212
689.814	863.927
693.189	772.491
696.563	771.824
699.938	637.595
703.313	620.908
706.688	560.48
710.063	484.818
713.438	378.375
716.812	334.075
720.187	307.223
723.562	197.466
726.937	167.77
730.312	122.71
733.687	65.8897
737.061	81.8755
740.436	23.4634
743.811	31.1323
747.186	30.8189
750.561	6.27393
753.935	13.0757
757.31	8.94336
760.685	99.9668
764.06	128.252
767.435	188.083
770.809	219.818
774.184	242.515
777.559	244.193
780.934	267.986
784.309	282.258
787.683	282.976
791.058	316.433
794.433	323.354
797.808	370.342
801.183	344.954
804.558	342.584
807.932	329.429
811.307	284.578
814.682	291.088
818.057	205.877
821.432	191.701
824.807	178.907
828.181	160.374
831.556	133.086
834.931	186.235
838.306	120.168
841.681	97.9043
845.055	142.994
848.43	138.17
851.805	115.712
855.18	138.608
858.555	384.847
861.929	99.1252
865.304	101.874
868.679	109.451
872.054	96.9038
875.429	94.3337
878.804	75.0823
882.178	95.1406
885.553	67.0574
888.928	24.8325
892.303	48.7532
895.678	23.2127
899.053	22.0332
902.427	35.0674
905.802	13.9348
909.177	24.9326
912.552	17.2336
915.927	34.2637
919.302	57.0002
922.676	74.073
926.051	40.3306
929.426	90.6885
932.801	66.7998
936.176	64.5906
939.55	41.8799
942.925	61.9558
946.3	78.1023
949.675	10.1245
953.05	26.3318
956.424	4.14014
959.799	14.6348
963.174	55.5911
966.549	75.8496
969.924	128.444
973.298	97.3789
976.673	150.567
980.048	188.264
983.423	186.921
986.798	273.558
990.173	354.279
993.547	359.903
996.922	503.841
1000.3	577.913
1003.67	688.579
1007.05	848.822
1010.42	953.903
1013.8	1097.5
1017.17	1266.04
1020.55	1450.81
1023.92	1629.11
1027.3	1855.88
1030.67	2062.92
1034.05	2248.28
1037.42	2541.97
1040.8	2823.8
1044.17	3112.06
1047.55	3343.89
1050.92	3639.79
1054.29	3896.25
1057.67	4107.88
1061.04	4326.08
1064.42	4535.25
1067.79	4660.17
1071.17	4906.66
1074.54	5004.22
1077.92	5155.67
1081.29	5313.18
1084.67	5551.4
1088.04	5774.14
1091.42	6033.73
1094.79	6366.99
1098.17	6702.63
1101.54	6708.67
1104.92	6492.63
1108.29	5937.12
1111.67	5467.59
1115.04	4884.14
1118.42	4236.16
1121.79	3588.62
1125.16	2985.51
1128.54	2351.29
1131.91	1726.06
1135.29	1201.39
1138.66	849.639
1142.04	714.684
1145.41	504.257
1148.79	54.8828
1152.16	510.068
1155.54	781.852
1158.91	310.779
1162.29	771.732
1165.66	2080.45
1169.04	3977.25
1172.41	5945.6
1175.79	7768.75
1179.16	7566.44
1182.54	5136
1185.91	2448.03
1189.29	418.223
1192.66	1352.06
1196.04	2998.89
1199.41	3819.22
1202.79	2461.82
1206.16	931.219
1209.54	6102.52
1212.91	10475
1216.29	11826.4
1219.66	10470.4
1223.04	8553.42
1226.41	7438.41
1229.79	7180.09
1233.16	8830.76
1236.53	13436
1239.91	23728
1243.28	32167.5
1246.66	30499.5
1250.03	22613.9
1253.41	15025.3
1256.78	11402.3
1260.16	11329.3
1263.53	13331.8
1266.91	16900.9
1270.28	19450.8
1273.66	23713.9
1277.03	31186.8
1280.41	38842.9
1283.78	44521.9
1287.16	61862.6
