Measurement: Raman, 780 nm, unoriented, Raman Data Processed
Mineral: Fluorcalciomicrolite
Rruff sample: R130022
Ideal chemistry: (Ca,Na)_2_Ta^5+^_2_O_6_F
Locality: Emdal mines, Muiane, Mozambique
Source: Royal Ontario Museum
Description: Yellowish brown transparent fragment
Measured chemistry: (Ca_1.14_Na_0.78_U_0.03_)_Σ=1.95_(Ta_1.63_Nb_0.18_Ti_0.15_Sb_0.02_Sn_0.02_)_Σ=2_O_6_[F_0.73_(OH)_0.24_]_Σ=0.97_
Raman shift (cm-1)	intensity
102.77	119.457
106.145	122.34
109.52	122.019
112.895	122.766
116.27	123.442
119.644	124.047
123.019	123.755
126.394	124.192
129.769	123.686
133.144	123.248
136.518	125.121
139.893	125.258
143.268	126.138
146.643	125.551
150.018	127.318
153.393	127.626
156.767	129.086
160.142	128.375
163.517	129.562
166.892	128.592
170.267	128.5
173.642	128.686
177.016	128.684
180.391	130.269
183.766	129.944
187.141	130.926
190.516	132.446
193.89	133.984
197.265	134.898
200.64	136.692
204.015	139.415
207.39	140.987
210.764	140.934
214.139	142.581
217.514	144.429
220.889	146.259
224.264	148.975
227.638	151.398
231.013	154.315
234.388	155.5
237.763	157.673
241.138	160.354
244.513	163.535
247.887	165.524
251.262	165.818
254.637	168.145
258.012	170.668
261.387	172.15
264.762	175.147
268.136	179.01
271.511	181.6
274.886	186.102
278.261	188.549
281.635	194.324
285.01	197.578
288.385	202.138
291.76	207.233
295.135	209.999
298.51	213.521
301.884	215.304
305.259	216.854
308.634	218.732
312.009	216.719
315.384	220.321
318.759	220.637
322.133	221.114
325.508	221.601
328.883	221.837
332.258	226.32
335.633	227.485
339.007	232.097
342.382	236.41
345.757	239.894
349.132	243.95
352.507	247.613
355.882	250.937
359.256	253.155
362.631	255.658
366.006	256.626
369.381	259.741
372.755	260.225
376.13	261.466
379.505	261.824
382.88	262.772
386.255	262.35
389.63	261.103
393.004	260.51
396.379	259.517
399.754	260.088
403.129	261.114
406.504	260.348
409.878	260.2
413.253	258.919
416.628	259.666
420.003	260.952
423.378	259.494
426.753	259.672
430.127	260.022
433.502	262.649
436.877	262.383
440.252	262.42
443.627	263.056
447.001	264.555
450.376	264.565
453.751	265.242
457.126	264.334
460.501	265.216
463.875	263.575
467.25	261.082
470.625	260.891
474	260.423
477.375	258.638
480.75	258.3
484.124	257.079
487.499	254.882
490.874	253.919
494.249	252.471
497.624	251.632
500.998	250.065
504.373	250.516
507.748	249.084
511.123	247.745
514.498	247.087
517.873	242.841
521.247	244.21
524.622	241.678
527.997	242.799
531.372	242.035
534.747	239.122
538.121	237.939
541.496	236.9
544.871	235.28
548.246	232.298
551.621	230.293
554.995	225.807
558.37	225.268
561.745	223.36
565.12	220.954
568.495	218.015
571.87	214.419
575.244	215.398
578.619	212.673
581.994	210.953
585.369	209.685
588.744	208.176
592.119	205.954
595.493	204.9
598.868	203.334
602.243	201.791
605.618	199.893
608.993	200.185
612.367	199.63
615.742	198.332
619.117	196.587
622.492	196.506
625.867	194.26
629.241	193.12
632.616	190.058
635.991	189.612
639.366	187.634
642.741	184.473
646.115	182.406
649.49	180.617
652.865	178.516
656.24	175.241
659.615	172.001
662.99	169.231
666.364	167.818
669.739	165.686
673.114	162.97
676.489	160.002
679.864	157.724
683.239	155.316
686.613	151.802
689.988	150.219
693.363	147.813
696.738	145.393
700.112	143.846
703.487	139.522
706.862	138.081
710.237	136.227
713.612	134.658
716.987	133.114
720.361	132.355
723.736	130.528
727.111	128.368
730.486	127.157
733.861	125.235
737.236	124.618
740.61	123.841
743.985	122.434
747.36	121.461
750.735	120.276
754.11	119.556
757.484	120.365
760.859	119.061
764.234	119.097
767.609	120.206
770.984	119.426
774.359	119.171
777.733	120.178
781.108	120.415
784.483	121.025
787.858	121.705
791.232	121.557
794.607	121.821
797.982	122.742
801.357	121.006
804.732	121.498
808.107	121.398
811.481	121.008
814.856	121.312
818.231	120.514
821.606	119.411
824.981	118.308
828.356	118.503
831.73	117.744
835.105	117.522
838.48	116.245
841.855	116.177
845.23	116.166
848.604	114.921
851.979	114.807
855.354	113.41
858.729	114.431
862.104	114.214
865.479	113.953
868.853	113.76
872.228	113.654
875.603	113.928
878.978	113.182
882.352	113.326
885.727	113.076
889.102	113.183
892.477	114.212
895.852	114.677
899.227	114.742
902.601	115.638
905.976	116.289
909.351	116.383
912.726	116.801
916.101	117.595
919.476	119.189
922.85	119.373
926.225	120.806
929.6	122.028
932.975	122.433
936.35	124.136
939.724	125.664
943.099	126.481
946.474	127.682
949.849	129.685
953.224	131.303
956.598	132.64
959.973	134.107
963.348	137.163
966.723	138.138
970.098	140.656
973.472	141.222
976.847	143.473
980.222	145.966
983.597	146.795
986.972	150.068
990.347	153.314
993.721	154.733
997.096	157.213
1000.47	160.196
1003.85	163.893
1007.22	166.801
1010.6	169.263
1013.97	172.441
1017.35	175.964
1020.72	179.073
1024.1	183.104
1027.47	185.629
1030.84	190.299
1034.22	195.02
1037.59	199.228
1040.97	202.542
1044.34	206.718
1047.72	211.318
1051.09	217.196
1054.47	221.718
1057.84	226.714
1061.22	233.68
1064.59	237.522
1067.97	242.712
1071.34	248.068
1074.72	253.058
1078.09	258.611
1081.47	263.133
1084.84	271.151
1088.22	277.937
1091.59	279.954
1094.97	288.356
1098.34	296.775
1101.71	303.688
1105.09	311.119
1108.46	322.606
1111.84	331.863
1115.21	344.611
1118.59	355.862
1121.96	369.093
1125.34	383.161
1128.71	399.157
1132.09	413.63
1135.46	431.501
1138.84	448.535
1142.21	465.963
1145.59	481.789
1148.96	501.762
1152.34	520.782
1155.71	538.325
1159.09	556.651
1162.46	576.529
1165.84	599.451
1169.21	622.49
1172.59	650.968
1175.96	678.645
1179.34	722.273
1182.71	747.03
1186.09	786.783
1189.46	827.642
1192.84	872.583
1196.21	924.138
1199.59	977.693
1202.96	1031.98
1206.34	1088.24
1209.71	1147.56
1213.08	1208.7
1216.46	1270.55
1219.83	1322.51
1223.21	1377.56
1226.58	1422
1229.96	1459.74
1233.33	1497.43
1236.71	1523.62
1240.08	1537.11
1243.46	1550.24
1246.83	1566.27
1250.21	1582.38
1253.58	1589.27
1256.96	1596.65
1260.33	1613.77
1263.71	1628.16
1267.08	1650.3
1270.46	1671.31
1273.83	1702.02
1277.21	1745.93
1280.58	1793.15
1283.95	1844.74
