Measurement: Raman, 780 nm, unoriented, Raman Data Processed
Mineral: Fluorapatite
Rruff sample: R060184
Ideal chemistry: Ca_5_(PO_4_)_3_F
Locality: Yates mine, Otter Lake, Quebec, Canada
Source: Lloyd Twaites
Description: Green colored fragment of a hexagonal prism
Measured chemistry: (Ca_0.99_Ce_0.01_)_5.00_((P_0.98_Si_0.01_S_0.01_)O_4_)_3_F_1.00_
Raman shift (cm-1)	intensity
92.0254	0
94.9181	133.276
97.8108	71.8884
100.704	72.895
103.596	34.6467
106.489	40.0454
109.382	30.5847
112.274	91.8296
115.167	124.852
118.06	221.159
120.952	227.579
123.845	306.828
126.738	310.21
129.631	386.85
132.523	457.039
135.416	430.009
138.309	459.8
141.201	472.587
144.094	407.278
146.987	325.705
149.879	328.739
152.772	319.025
155.665	346.834
158.557	408.994
161.45	421.606
164.343	428.35
167.236	456.619
170.128	495.056
173.021	582.076
175.914	627.931
178.806	648.425
181.699	674.211
184.592	694.505
187.484	757.29
190.377	818.881
193.27	829.539
196.162	877.175
199.055	891.983
201.948	925.089
204.841	950.858
207.733	937.18
210.626	901.386
213.519	986.141
216.411	932.815
219.304	1028.67
222.197	1125.61
225.089	1204.1
227.982	1291.68
230.875	1275.39
233.768	1203.78
236.66	1132.42
239.553	1219.8
242.446	1160.16
245.338	1196.97
248.231	1183.02
251.124	1036.86
254.017	869.262
256.909	551.741
259.802	432.106
262.695	373.986
265.587	268.332
268.48	68.0879
271.373	47.4199
274.265	87.8711
277.158	230.922
280.051	332.461
282.943	228.096
285.836	41.2871
288.729	26.1777
291.622	338.115
294.514	507.459
297.407	858.574
300.3	1640.18
303.192	2006.74
306.085	2433.73
308.978	3126.93
311.87	3809.38
314.763	4440.6
317.656	5497.5
320.548	6444.5
323.441	7683.4
326.334	8549.3
329.227	9353.55
332.119	9754.22
335.012	9999.18
337.905	9946.35
340.797	9884.11
343.69	9463.05
346.583	9142.13
349.476	8769.86
352.368	8139.66
355.261	7319.85
358.154	6317.56
361.046	5290.04
363.939	4246.04
366.832	3162.8
369.724	2112.3
372.617	1485.7
375.51	922.797
378.402	422.133
381.295	72.6992
384.188	43.5469
387.081	54.6914
389.973	274.234
392.866	622.828
395.759	1327.03
398.651	2243.72
401.544	3197.67
404.437	4369.26
407.329	5807.15
410.222	7019.77
413.115	8910.71
416.008	10933
418.9	13146.8
421.793	15335
424.686	17094.3
427.578	18410.5
430.471	18437.9
433.364	17037.8
436.257	14909.5
439.149	12545.3
442.042	9970.14
444.935	8010.88
447.827	6744.38
450.72	5740.33
453.613	5088.14
456.505	4571.47
459.398	4290.94
462.291	4046.98
465.183	3772.85
468.076	3598.78
470.969	3361.95
473.861	3379.19
476.754	3100.57
479.647	2790.9
482.54	2493.61
485.432	2375.64
488.325	1909.23
491.218	1651.91
494.11	1071.37
497.003	739.324
499.896	388.4
502.788	134.465
505.681	50.6484
508.574	188.898
511.467	220.934
514.359	218.279
517.252	206.557
520.145	204.654
523.037	62.3125
525.93	32.3906
528.823	73.832
531.716	4.67969
534.608	41.4336
537.501	344.06
540.394	267.068
543.286	340.084
546.179	369.688
549.072	539.922
551.964	722.981
554.857	820.557
557.75	1027.36
560.643	1090.9
563.535	1281.24
566.428	1234.69
569.321	1342.49
572.213	1261.59
575.106	1284.45
577.999	1323.96
580.891	1303.75
583.784	1281.52
586.677	1312.6
589.569	1175.46
592.462	1157.06
595.355	1030.81
598.248	1031.29
601.14	964.881
604.033	927.525
606.926	978.025
609.818	819.725
612.711	839.107
615.604	827.203
618.496	798.42
621.389	939.053
624.282	781.25
627.174	732.59
630.067	790.752
632.96	646.088
635.853	802.225
638.745	754.49
641.638	634.178
644.531	658.611
647.423	633
650.316	778.195
653.209	703.809
656.101	705.004
658.994	691.205
661.887	686.582
664.78	641.359
667.672	782.158
670.565	812.769
673.458	920.85
676.35	934.135
679.243	833.82
682.136	926.656
685.029	894.082
687.921	774.273
690.814	664.102
693.707	697.633
696.599	603.553
699.492	530.83
702.385	347.725
705.277	254.709
708.17	296.295
711.063	155.938
713.955	104.178
716.848	51.0117
719.741	32.5977
722.634	9.2832
725.526	91.2695
728.419	155.264
731.312	99.8887
734.204	41.5898
737.097	8.05469
739.99	109
742.882	54.8906
745.775	194.297
748.668	321.644
751.561	520.484
754.453	525.693
757.346	757.285
760.239	928.264
763.131	1137.29
766.024	1220.62
768.917	1387.11
771.809	1499.01
774.702	1554.72
777.595	1621.4
780.487	1773.97
783.38	1891.19
786.273	1904.54
789.166	1840.76
792.058	1877.13
794.951	1816.6
797.844	1838.33
800.736	1791.24
803.629	1669.95
806.522	1752.03
809.414	1726.07
812.307	1638.74
815.2	1661.86
818.093	1686.54
820.985	1687.25
823.878	1701.56
826.771	1658.54
829.663	1578.66
832.556	1470.64
835.449	1364.8
838.341	1400.43
841.234	1378.93
844.127	1271.06
847.02	1157.01
849.912	1246.87
852.805	1171.78
855.698	1164.77
858.59	1109.32
861.483	1017.44
864.376	841.356
867.269	822.47
870.161	722.074
873.054	639.586
875.947	669.867
878.839	510.374
881.732	335.088
884.625	254.837
887.517	257.947
890.41	94.3144
893.303	96.0205
896.195	19.4346
899.088	70.8594
901.981	107.169
904.874	196.727
907.766	115.649
910.659	116.852
913.552	19.1699
916.444	110.475
919.337	5.29883
922.23	58.1211
925.122	51.5703
928.015	210.385
930.908	311.589
933.801	349.812
936.693	396.834
939.586	576.969
942.479	543.347
945.371	659.145
948.264	590.423
951.157	672.039
954.049	672.453
956.942	761.257
959.835	892.332
962.727	1028.18
965.62	937.399
968.513	588.557
971.406	411.773
974.298	277.653
977.191	186.819
980.084	252.105
982.976	313.484
985.869	243.384
988.762	406.135
991.654	504.349
994.547	641.26
997.44	732.945
1000.33	803.69
1003.23	839.933
1006.12	1089.56
1009.01	1146.7
1011.9	1328.36
1014.8	1402.35
1017.69	1548.75
1020.58	1621.71
1023.47	1765.01
1026.37	1868.66
1029.26	1945.6
1032.15	2093.12
1035.05	2141.61
1037.94	2143.18
1040.83	2140.22
1043.72	2268.23
1046.62	2286.01
1049.51	2435.1
1052.4	2525.72
1055.29	2733.13
1058.19	3071.41
1061.08	3314.22
1063.97	3253.5
1066.87	3126.99
1069.76	2881.39
1072.65	2682.09
1075.54	2409.53
1078.43	2151.37
1081.33	2003.37
1084.22	1697.83
1087.11	1810.69
1090.01	1767.65
1092.9	1866.63
1095.79	1977.89
1098.68	1821.95
1101.58	1296.19
1104.47	711.512
1107.36	211.769
1110.26	215.945
1113.15	464.5
1116.04	540.547
1118.93	141.691
1121.83	1144.88
1124.72	2951.24
1127.61	5046.36
1130.5	8483.66
1133.4	12493.1
1136.29	16823.1
1139.18	19574.3
1142.08	20348.2
1144.97	18455.6
1147.86	15425.5
1150.75	12323.6
1153.65	9487.31
1156.54	7484.91
1159.43	6314.41
1162.32	5489.94
1165.22	5238.5
1168.11	4883.73
1171	4609
1173.89	4617.64
1176.79	4867.29
1179.68	4868.05
1182.57	4443.65
1185.46	3310.43
1188.36	2374.16
1191.25	1039.25
1194.14	82.4141
1197.04	195.406
1199.93	105.734
1202.82	809.891
1205.71	1335.28
1208.61	1707.3
1211.5	1393.52
1214.39	1268.39
1217.29	905.641
1220.18	0
