Measurement: Raman, 532 nm, unoriented, Raman Data Processed
Mineral: Fluorapatite
Rruff sample: R050401
Ideal chemistry: Ca_5_(PO_4_)_3_F
Locality: Urbano mine, Golconda District, Minas Gerais, Brazil
Source: Bob Downs
Description: Pale purple hexagonal prism associated with albite R050402
Measured chemistry: (Ca_0.99_Mn_0.01_)_5_(P_1.00_O_4_)_3_F_1.00_
Raman shift (cm-1)	intensity
143.458	0
146.833	5.63574
150.208	3.80469
153.582	163.15
156.957	287.234
160.332	244.994
163.707	159.269
167.082	224.391
170.456	300.83
173.831	224.861
177.206	228.484
180.581	303.609
183.956	226.006
187.331	274.5
190.705	104.418
194.08	168.853
197.455	51.7656
200.83	65.5273
204.205	4.22461
207.579	5.88672
210.954	7.70117
214.329	111.742
217.704	42.3184
221.079	122.144
224.453	49.0879
227.828	51.2969
231.203	23.3281
234.578	47.6172
237.953	115.91
241.328	173.014
244.702	141.49
248.077	192.012
251.452	216.438
254.827	190.482
258.202	139.268
261.577	148.166
264.951	204.106
268.326	92.6406
271.701	180.338
275.076	265.217
278.451	231.188
281.825	119.836
285.2	140.955
288.575	209.818
291.95	115.365
295.325	100.33
298.7	118.506
302.074	134.238
305.449	194.69
308.824	140.846
312.199	234.301
315.574	269.16
318.948	238.857
322.323	141.07
325.698	100.561
329.073	164.664
332.448	225.059
335.822	104.41
339.197	5.98047
342.572	5.61523
345.947	21.7891
349.322	200.621
352.697	246.727
356.071	24.4062
359.446	61.2617
362.821	60.4707
366.196	127.984
369.571	135.654
372.945	12.4238
376.32	6.20117
379.695	38.9316
383.07	76.6914
386.445	101.799
389.82	183.137
393.194	125.812
396.569	62.5039
399.944	97.0078
403.319	125.055
406.694	81.4668
410.068	4.07617
413.443	144.926
416.818	155.283
420.193	139.641
423.568	275.787
426.942	270.602
430.317	290.644
433.692	196.715
437.067	280.338
440.442	207.59
443.817	238.441
447.191	131.326
450.566	328.797
453.941	148.477
457.316	204.453
460.691	134.172
464.065	184.607
467.44	114.332
470.815	45.0625
474.19	177.359
477.565	108.777
480.94	171.621
484.314	146.164
487.689	0.03125
491.064	122.168
494.439	23.4395
497.814	89.8867
501.188	154.414
504.563	12.9414
507.938	25.2773
511.313	31.9414
514.688	31.9121
518.063	120.531
521.437	109.062
524.812	31.3672
528.187	25.1719
531.562	152.231
534.937	94.2754
538.312	67.2734
541.686	51.7988
545.061	118.945
548.436	186.728
551.811	241.346
555.186	150.428
558.56	40.0352
561.935	183.139
565.31	98.7988
568.685	105.598
572.06	58.4961
575.434	172.123
578.809	230.164
582.184	351.375
585.559	273.518
588.934	289.603
592.308	193.877
595.683	301.658
599.058	326.152
602.433	218.615
605.808	277.4
609.183	188.822
612.557	190.221
615.932	125.225
619.307	108.074
622.682	60.2617
626.057	85.9004
629.432	215.428
632.806	99.5078
636.181	159.674
639.556	162.887
642.931	96.1289
646.306	35.168
649.68	44.7188
653.055	33.0234
656.43	140.041
659.805	96.6367
663.18	218.607
666.554	197.33
669.929	112.787
673.304	119.609
676.679	222.144
680.054	116.488
683.428	258.416
686.803	272.959
690.178	142.76
693.553	1.83203
696.928	131.254
700.303	192.693
703.677	156.664
707.052	198.352
710.427	110.568
713.802	156.492
717.177	127.84
720.552	162.565
723.926	144.508
727.301	145.428
730.676	186.748
734.051	40.9004
737.426	102.496
740.8	78.2207
744.175	98.7324
747.55	127.547
750.925	116.637
754.3	155.352
757.674	167.164
761.049	161.768
764.424	68.9727
767.799	115.406
771.174	115.139
774.549	132.022
777.923	113.564
781.298	137.109
784.673	204.81
788.048	285.129
791.423	262.856
794.798	222.422
798.172	138.941
801.547	119.606
804.922	195.981
808.297	95.3516
811.672	178.678
815.046	101.644
818.421	29.9844
821.796	241.15
825.171	256.264
828.546	37.6758
831.92	90.1894
835.295	38.459
838.67	169.404
842.045	150.56
845.42	85.5957
848.795	82.7207
852.169	92.4453
855.544	100.152
858.919	263.057
862.294	167.617
865.669	51.4395
869.043	128.014
872.418	138.133
875.793	127.172
879.168	60.4707
882.543	61.0605
885.918	194.627
889.292	62.4785
892.667	146.221
896.042	76.0664
899.417	137.281
902.792	177.389
906.166	63.2637
909.541	69.709
912.916	63.4961
916.291	54.1348
919.666	187.269
923.04	240.141
926.415	170.045
929.79	196.393
933.165	175.607
936.54	187.141
939.915	24.916
943.289	2.25391
946.664	20.9961
950.039	122.457
953.414	364.387
956.789	561.652
960.163	893.832
963.538	1415.3
966.913	1122.24
970.288	583.074
973.663	360.715
977.038	288.949
980.412	206.238
983.787	430.098
987.162	301.602
990.537	169.391
993.912	265.863
997.287	229.301
1000.66	197.93
1004.04	202.129
1007.41	244.516
1010.79	288.992
1014.16	429.297
1017.53	469.348
1020.91	506.258
1024.29	527.078
1027.66	614.848
1031.04	543.832
1034.41	608.273
1037.78	699.004
1041.16	327.742
1044.53	303.305
1047.91	74.7539
1051.28	99.5195
1054.66	333.684
1058.03	288.707
1061.41	136.59
1064.78	117.777
1068.16	25.2109
1071.53	5.42969
1074.91	27.3125
1078.28	29.9023
1081.66	43.9922
1085.03	73.1328
1088.41	212.543
1091.78	51.75
1095.16	171.859
1098.53	20.5742
1101.91	243.938
1105.28	190.441
1108.65	76.3984
1112.03	174.254
1115.4	420.102
1118.78	412.203
1122.15	354.988
1125.53	397.059
1128.9	264.91
1132.28	384.551
1135.65	406.035
1139.03	349.879
1142.4	305.078
1145.78	269.586
1149.15	273.738
1152.53	267.688
1155.9	166.242
1159.28	123.676
1162.65	135.332
1166.03	195.141
1169.4	221.746
1172.78	169.547
1176.15	222.484
1179.53	153.359
1182.9	133.31
1186.28	75.3027
1189.65	296.057
1193.03	208.463
1196.4	24.1797
1199.78	17.8574
1203.15	17.6406
1206.53	15.6836
1209.9	100.422
1213.28	46.6172
1216.65	23.4336
1220.02	141.029
1223.4	118.037
1226.77	34.8379
1230.15	59.9883
1233.52	136.656
1236.9	75.7148
1240.27	30.4512
1243.65	103.715
1247.02	84.2363
1250.4	133.412
1253.77	200.094
1257.15	100.16
1260.52	82.4004
1263.9	141.225
1267.27	94.709
1270.65	208.928
1274.02	26.5859
1277.4	53.0527
1280.77	138.635
1284.15	241.641
1287.52	240.565
1290.9	152.606
1294.27	47.9609
1297.64	7.57617
1301.02	168.174
1304.39	32.4258
