Measurement: Raman, 785 nm, unoriented, Raman Data Processed
Mineral: Fluoro-edenite
Rruff sample: R070003
Ideal chemistry: NaCa_2_Mg_5_(Si_7_Al)O_22_F_2_
Locality: Cobden, Ontario, Canada
Source: Michael Scott
Description: Black to very dark green single crystal fragment
Measured chemistry: (Na_0.55_K_0.35_[box]_0.10_)_Σ=1_(Ca_1.65_Na_0.35_)_Σ=2_(Mg_2.42_Fe^2+^_1.81_Fe^3+^_0.52_Al_0.14_Ti_0.07_Mn_0.04_)_Σ=5_(Si_6.65_Al_1.35_)O_22_(F_1.03_(OH)_0.94_Cl_0.03_)_Σ=2_; (OH) estimated by difference
Raman shift (cm-1)	intensity
151.201	0
154.094	10.407
156.987	8.65924
159.879	18.0924
162.772	46.7576
165.665	62.6299
168.557	36.9648
171.45	19.151
174.343	11.6602
177.236	19.5086
180.128	0.120789
183.021	21.7873
185.914	8.10553
188.806	22.2824
191.699	19.7425
194.592	8.05045
197.484	36.0231
200.377	22.7297
203.27	17.1116
206.162	46.6255
209.055	31.2284
211.948	47.116
214.841	59.4976
217.733	59.7834
220.626	81.3238
223.519	91.5085
226.411	68.2741
229.304	91.1696
232.197	74.3694
235.089	55.6513
237.982	43.0232
240.875	47.4408
243.768	49.2256
246.66	28.0524
249.553	30.3345
252.446	30.307
255.338	33.9269
258.231	14.3264
261.124	26.0906
264.017	7.81897
266.909	3.68091
269.802	21.057
272.695	1.1214
275.587	17.1083
278.48	17.0154
281.373	40.6411
284.265	39.7926
287.158	62.6524
290.051	47.2646
292.943	60.0688
295.836	83.9392
298.729	51.6529
301.622	65.1126
304.514	66.8207
307.407	51.4463
310.3	69.8058
313.192	43.8545
316.085	16.761
318.978	24.7914
321.87	28.8005
324.763	20.401
327.656	28.3047
330.549	3.52472
333.441	23.3514
336.334	17.8727
339.227	9.73941
342.119	5.39255
345.012	38.4029
347.905	7.67007
350.798	23.2179
353.69	30.0897
356.583	18.6713
359.476	38.391
362.368	32.1823
365.261	13.9196
368.154	7.89957
371.046	31.6741
373.939	20.0616
376.832	22.3571
379.724	31.646
382.617	17.7691
385.51	41.629
388.403	32.3117
391.295	1.1832
394.188	6.72806
397.081	3.79688
399.973	10.6519
402.866	3.07916
405.759	18.3978
408.651	6.81171
411.544	17.4926
414.437	8.76346
417.329	15.4927
420.222	26.0963
423.115	20.0874
426.008	31.4922
428.9	45.7359
431.793	51.6477
434.686	25.0456
437.578	48.3051
440.471	41.4429
443.364	60.476
446.257	39.8277
449.149	61.6291
452.042	26.9821
454.935	52.318
457.827	44.2969
460.72	9.36841
463.613	27.5853
466.505	15.3276
469.398	16.2518
472.291	20.0852
475.183	16.8698
478.076	2.69055
480.969	10.0141
483.862	13.4759
486.754	8.60971
489.647	36.9374
492.54	45.9227
495.432	72.5016
498.325	55.9937
501.218	87.9348
504.111	89.6426
507.003	115.246
509.896	101.752
512.789	117.684
515.681	128.473
518.574	149.054
521.467	157.559
524.359	155.594
527.252	156.083
530.145	172.948
533.038	159.45
535.93	181.877
538.823	149.775
541.716	139.435
544.608	143.744
547.501	153.844
550.394	147.396
553.286	127.786
556.179	123.873
559.072	94.2684
561.965	97.0525
564.857	93.6468
567.75	86.7305
570.643	67.2944
573.535	54.0365
576.428	49.6838
579.321	26.2712
582.213	16.8921
585.106	8.33203
587.999	4.63132
590.891	11.7776
593.784	13.5396
596.677	14.4928
599.57	13.7547
602.462	1.07516
605.355	3.85382
608.248	7.09146
611.14	33.2996
614.033	23.4973
616.926	12.4458
619.818	3.92261
622.711	29.6004
625.604	4.0564
628.497	11.9501
631.389	27.6579
634.282	22.8574
637.175	30.3682
640.067	25.931
642.96	37.2618
645.853	26.7972
648.745	23.2776
651.638	47.1981
654.531	77.4292
657.424	51.0177
660.316	103.559
663.209	94.8188
666.102	125.526
668.994	128.042
671.887	104.064
674.78	121.132
677.673	79.8775
680.565	72.5627
683.458	35.1586
686.351	35.6484
689.243	40.7249
692.136	12.5793
695.029	3.9444
697.921	2.27536
700.814	6.87094
703.707	23.2757
706.6	23.6231
709.492	11.1709
712.385	38.0584
715.278	0.955048
718.17	15.6903
721.063	21.6568
723.956	19.3619
726.848	3.89951
729.741	28.5696
732.634	9.11789
735.527	18.409
738.419	28.3595
741.312	3.70049
744.205	32.1134
747.097	27.2384
749.99	19.9759
752.883	15.4018
755.775	22.3094
758.668	14.0816
761.561	18.438
764.453	6.73251
767.346	41.0951
770.239	24.5944
773.131	18.6354
776.024	30.2995
778.917	17.7234
781.81	16.0344
784.702	32.2239
787.595	0.878036
790.488	24.7741
793.38	37.1838
796.273	18.0983
799.166	26.7832
802.058	14.9944
804.951	1.3373
807.844	31.4903
810.737	15.4418
813.629	25.1322
816.522	19.1981
819.415	0.10434
822.307	18.6496
825.2	35.321
828.093	2.81885
830.986	21.528
833.878	5.26453
836.771	4.01263
839.664	23.5093
842.556	23.1683
845.449	26.2392
848.342	5.68344
851.234	23.2102
854.127	20.6842
857.02	0.678329
859.913	11.2832
862.805	26.3825
865.698	16.2716
868.591	11.6241
871.483	10.0786
874.376	2.73158
877.269	20.5415
880.161	11.2812
883.054	2.96512
885.947	8.51379
888.84	10.9699
891.732	19.3233
894.625	13.9638
897.518	16.1291
900.41	1.29282
903.303	6.79474
906.196	16.3093
909.088	21.4376
911.981	18.6727
914.874	25.3181
917.766	19.9719
920.659	14.7548
923.552	29.6061
926.445	32.1509
929.337	24.1029
932.23	19.8041
935.123	5.08691
938.015	16.6369
940.908	16.6832
943.801	8.83984
946.693	0.574127
949.586	6.98154
952.479	13.5984
955.372	25.071
958.264	17.7614
961.157	21.4779
964.05	9.89365
966.942	23.239
969.835	19.2115
972.728	36.151
975.62	13.8505
978.513	19.683
981.406	3.0567
984.299	35.5208
987.191	27.0497
990.084	27.4984
992.977	21.1868
995.869	19.8171
998.762	28.3167
1001.65	11.2007
1004.55	28.4291
1007.44	15.9594
1010.33	22.2867
1013.23	15.2326
1016.12	3.78857
1019.01	13.6278
1021.9	20.5762
1024.8	32.7018
1027.69	22.93
1030.58	37.3912
1033.47	22.5265
1036.37	27.3031
1039.26	28.2554
1042.15	34.9756
1045.05	48.5077
1047.94	31.2498
1050.83	31.4762
1053.72	33.594
1056.62	17.0008
1059.51	24.3296
1062.4	24.4446
1065.29	13.7555
1068.19	13.1678
1071.08	24.1666
1073.97	14.7601
1076.87	9.02034
1079.76	12.877
1082.65	26.6522
1085.54	26.5334
1088.44	36.0701
1091.33	33.8375
1094.22	11.8571
1097.11	16.7874
1100.01	10.5413
1102.9	37.4847
1105.79	16.1729
1108.68	5.78459
1111.58	40.31
1114.47	1.29387
1117.36	27.8528
1120.26	28.2626
1123.15	30.7787
1126.04	16.7809
1128.93	7.746
1131.83	7.43201
1134.72	14.0066
1137.61	4.51596
1140.5	1.8241
1143.4	35.429
1146.29	7.46258
1149.18	28.1127
1152.08	5.07278
1154.97	32.0086
1157.86	20.2685
1160.75	7.79167
1163.65	12.0261
1166.54	24.8215
1169.43	31.3888
1172.32	31.6706
1175.22	48.7255
1178.11	15.9189
1181	25.1003
1183.89	14.2523
1186.79	32.9034
1189.68	24.4578
1192.57	34.813
1195.47	20.1817
1198.36	16.3328
1201.25	17.685
1204.14	59.1678
1207.04	18.5407
1209.93	11.8577
1212.82	30.9731
1215.71	33.9501
1218.61	44.4588
1221.5	9.92397
1224.39	19.6114
1227.29	50.3249
1230.18	24.6626
1233.07	40.1501
1235.96	27.1449
1238.86	34.091
1241.75	1.23267
1244.64	0
