Measurement: Raman, 780 nm, unoriented, Raman Data Processed
Mineral: Fluornatromicrolite
Rruff sample: R130021
Ideal chemistry: (Na_1.5_Bi^3+^_0.5_)Ta^5+^_2_O_6_F
Locality: Fisher’s Ledge, Topsham, Maine, USA.
Source: Royal Ontario Museum
Description: Transparent green octahedra on albite
Measured chemistry: (Na_1.01_Ca_0.94_Bi_0.02_Mn_0.01_)_Σ=1.99_(Ta_1.96_Nb_0.02_Sb_0.01_Sn_0.01_)_Σ=2_O_6_[F_0.85_(OH)_0.11_]_Σ=0.96_
Raman shift (cm-1)	intensity
95.5386	1279.78
98.9134	1295.87
102.288	1308.05
105.663	1327.38
109.038	1333.23
112.413	1362.96
115.787	1356.76
119.162	1372.77
122.537	1381.06
125.912	1390.54
129.287	1400.78
132.662	1406.51
136.036	1427.29
139.411	1436.05
142.786	1453.89
146.161	1454.92
149.536	1474.6
152.911	1496.52
156.285	1494.59
159.66	1504.2
163.035	1524.13
166.41	1533.25
169.785	1544.05
173.159	1542.39
176.534	1560.81
179.909	1559.75
183.284	1574.41
186.659	1584.03
190.033	1594.9
193.408	1606.03
196.783	1618.23
200.158	1614.07
203.533	1636.33
206.907	1655.29
210.282	1659.7
213.657	1664.45
217.032	1673.25
220.407	1690.92
223.782	1703.72
227.156	1709.21
230.531	1717.12
233.906	1732.73
237.281	1745.74
240.656	1758.4
244.03	1766.41
247.405	1784.66
250.78	1780.01
254.155	1793.99
257.53	1803.83
260.904	1817.7
264.279	1826.94
267.654	1832.23
271.029	1860.08
274.404	1873.97
277.779	1884.16
281.153	1899.48
284.528	1909.11
287.903	1911.79
291.278	1923.12
294.653	1955.36
298.027	1962.79
301.402	1969.44
304.777	1984.54
308.152	1987.65
311.527	2005.7
314.902	2009.56
318.276	2027.16
321.651	2032.23
325.026	2037.22
328.401	2054.67
331.776	2067.06
335.151	2069.17
338.525	2093.84
341.9	2101.21
345.275	2108.97
348.65	2119.76
352.024	2127.91
355.399	2140.81
358.774	2167.63
362.149	2179.69
365.524	2182.7
368.899	2213.85
372.273	2203.32
375.648	2219.34
379.023	2233.64
382.398	2246
385.773	2258.26
389.147	2270.93
392.522	2273.22
395.897	2294.77
399.272	2303.21
402.647	2323.83
406.022	2340.04
409.396	2342.2
412.771	2359.13
416.146	2384.98
419.521	2393.23
422.896	2404.44
426.27	2412.6
429.645	2428.61
433.02	2453.54
436.395	2471.5
439.77	2483.3
443.144	2485.28
446.519	2512.27
449.894	2516.28
453.269	2537.26
456.644	2561.93
460.019	2573.01
463.393	2585.8
466.768	2598.08
470.143	2619.27
473.518	2625.38
476.893	2636.04
480.267	2648.79
483.642	2671.97
487.017	2683.47
490.392	2689.21
493.767	2708.15
497.142	2718.5
500.516	2721.58
503.891	2752.15
507.266	2785.32
510.641	2799.79
514.016	2807.98
517.39	2836.86
520.765	2828.97
524.14	2852.12
527.515	2866.61
530.89	2876.53
534.264	2879.3
537.639	2892.58
541.014	2912.07
544.389	2939.15
547.764	2943.89
551.139	2962.49
554.513	2972.68
557.888	2986.1
561.263	3021.07
564.638	3035.8
568.013	3030.04
571.388	3034.77
574.762	3066.22
578.137	3092.34
581.512	3105.48
584.887	3117.14
588.261	3137.41
591.636	3150.95
595.011	3166.16
598.386	3192.99
601.761	3194.83
605.136	3230.79
608.51	3236.61
611.885	3251.88
615.26	3279.06
618.635	3296.9
622.01	3317.49
625.385	3328.78
628.759	3352.01
632.134	3371.84
635.509	3392.38
638.884	3417.5
642.259	3436.65
645.633	3438.95
649.008	3466.37
652.383	3481.98
655.758	3505.19
659.133	3523.03
662.507	3539.03
665.882	3544.53
669.257	3570.83
672.632	3588.89
676.007	3607.51
679.381	3632.23
682.756	3641.59
686.131	3659.27
689.506	3674.24
692.881	3695.62
696.256	3727.11
699.63	3731.31
703.005	3747.74
706.38	3770.07
709.755	3790.28
713.13	3805.96
716.505	3846.39
719.879	3864.92
723.254	3879.56
726.629	3910.8
730.004	3933.35
733.379	3954.63
736.753	3992.55
740.128	4007.27
743.503	4033.88
746.878	4055.35
750.253	4075.08
753.627	4095.09
757.002	4126.59
760.377	4148.8
763.752	4167.2
767.127	4193.3
770.501	4215.92
773.876	4239.16
777.251	4254.81
780.626	4287.39
784.001	4326.97
787.376	4344.56
790.75	4355.24
794.125	4388.56
797.5	4407.26
800.875	4422.73
804.25	4461.93
807.625	4484.22
810.999	4502.44
814.374	4537.87
817.749	4558.58
821.124	4580.12
824.499	4622.2
827.873	4655.21
831.248	4685.18
834.623	4696.77
837.998	4716.04
841.373	4736.2
844.747	4770.09
848.122	4808.93
851.497	4815.97
854.872	4854.67
858.247	4889.3
861.621	4891.57
864.996	4917.91
868.371	4945.72
871.746	4960.15
875.121	5005.89
878.495	5023.74
881.87	5066.23
885.245	5086.79
888.62	5101.83
891.995	5149.58
895.37	5162.43
898.744	5202.89
902.119	5216.98
905.494	5265.62
908.869	5279.7
912.244	5319.84
915.619	5335.2
918.993	5361.73
922.368	5377.13
925.743	5414.32
929.118	5472.66
932.493	5486.23
935.867	5518.63
939.242	5553.05
942.617	5587.54
945.992	5603.55
949.367	5628.6
952.741	5668.2
956.116	5698.75
959.491	5738.61
962.866	5747.16
966.241	5806.95
969.615	5818.57
972.99	5857.55
976.365	5870.27
979.74	5904.27
983.115	5940.9
986.49	5985.15
989.864	6022.28
993.239	6032.05
996.614	6084.28
999.989	6114.18
1003.36	6161.71
1006.74	6184.89
1010.11	6204.92
1013.49	6257.05
1016.86	6288.23
1020.24	6300.25
1023.61	6333.1
1026.99	6381.85
1030.36	6428.4
1033.74	6453.38
1037.11	6485.98
1040.49	6532.45
1043.86	6569.02
1047.24	6565.16
1050.61	6622.88
1053.99	6673.22
1057.36	6683.72
1060.74	6742.25
1064.11	6779.61
1067.48	6801.06
1070.86	6833.03
1074.23	6889.46
1077.61	6908.5
1080.98	6949.4
1084.36	6983.71
1087.73	7035.21
1091.11	7059.69
1094.48	7084.22
1097.86	7119.12
1101.23	7164
1104.61	7162.39
1107.98	7207.44
1111.36	7264.53
1114.73	7278.96
1118.11	7309.96
1121.48	7366.66
1124.86	7405.71
1128.23	7462.21
1131.61	7494.13
1134.98	7530.1
1138.36	7589.2
1141.73	7656.36
1145.11	7673.42
1148.48	7721.9
1151.86	7792.33
1155.23	7812.9
1158.61	7851.64
1161.98	7900.78
1165.36	7946.95
1168.73	8017.67
1172.1	8060.7
1175.48	8084.73
1178.85	8158.68
1182.23	8157.6
1185.6	8192.6
1188.98	8259.24
1192.35	8295.5
1195.73	8359.53
1199.1	8392.04
1202.48	8414.93
1205.85	8474.73
1209.23	8519.9
1212.6	8546.95
1215.98	8600.59
1219.35	8628.88
1222.73	8675.54
1226.1	8689.22
1229.48	8722.82
1232.85	8795.86
1236.23	8850.09
1239.6	8860.38
1242.97	8925.77
1246.35	8998.4
1249.72	9039.86
1253.1	9078.95
1256.47	9150.64
1259.85	9204.03
1263.22	9236.51
1266.6	9293.75
1269.97	9380.9
1273.35	9400.27
1276.72	9531.2
1280.1	9531.45
1283.47	9598.34
