Measurement: Raman, 780 nm, unoriented, Raman Data Processed
Mineral: Fluor-uvite
Rruff sample: R050172
Ideal chemistry: CaMg_3_(Al_5_Mg)(Si_6_O_18_)(BO_3_)_3_(OH)_3_F
Locality: Pierrepont, New York, USA
Source: Marcus Origlieri
Description: Black prismatic crystal
Measured chemistry: (Ca_0.64_Na_0.36_)(Mg_0.56_Fe^2+^_0.34_Al_0.08_Ti_0.02_)_3_(Mg_1.00_Al_5.00_)(BO_3_)_3_Si_6.00_O_18_((OH)_3.45_F_0.55_)
Raman shift (cm-1)	intensity
172.534	0
175.427	1.61974
178.319	0.144409
181.212	0.205154
184.105	0.573776
186.997	0.339523
189.89	0.183075
192.783	0.97905
195.675	0.615067
198.568	1.22522
201.461	0.098236
204.354	0.861481
207.246	1.38678
210.139	1.1832
213.032	0.294312
215.924	1.3866
218.817	2.16396
221.71	0.710434
224.602	0.838226
227.495	1.21612
230.388	2.03718
233.281	2.06953
236.173	2.25309
239.066	1.45747
241.959	1.92065
244.851	1.222
247.744	0.973976
250.637	0.37648
253.53	0.764122
256.422	0.14399
259.315	1.20082
262.208	1.02091
265.1	0.190079
267.993	1.62336
270.886	0.893684
273.778	0.940239
276.671	0.557991
279.564	0.699982
282.457	0.433266
285.349	0.657341
288.242	0.414413
291.135	0.401085
294.027	1.3625
296.92	1.06529
299.813	0.977036
302.705	2.24081
305.598	1.99155
308.491	2.11201
311.384	2.82835
314.276	4.02236
317.169	4.35169
320.062	4.20647
322.954	4.91694
325.847	5.62888
328.74	5.83557
331.632	5.49865
334.525	6.62936
337.418	6.99364
340.31	8.03617
343.203	7.43903
346.096	9.35282
348.989	10.2837
351.881	9.61326
354.774	10.3892
357.667	10.4733
360.559	10.4799
363.452	9.26253
366.345	9.2163
369.238	7.2654
372.13	7.27385
375.023	5.57297
377.916	4.91268
380.808	4.56145
383.701	3.72893
386.594	3.37769
389.486	2.2214
392.379	2.31145
395.272	1.11069
398.164	2.11571
401.057	1.36021
403.95	1.47518
406.843	0.20356
409.735	0.565781
412.628	0.237648
415.521	0.724312
418.413	0.076767
421.306	0.475754
424.199	0.07399
427.091	0.483772
429.984	0.061172
432.877	0.56987
435.77	0.264145
438.662	0.119591
441.555	0.263695
444.448	0.597221
447.34	0.861282
450.233	0.602928
453.126	0.811493
456.019	1.77929
458.911	2.07139
461.804	2.91811
464.697	1.90372
467.589	1.86054
470.482	4.12662
473.375	4.43951
476.267	4.10264
479.16	4.94839
482.053	4.26134
484.945	5.17385
487.838	5.60491
490.731	4.78373
493.624	6.09889
496.516	5.12005
499.409	5.91807
502.302	5.72025
505.194	6.85272
508.087	6.60073
510.98	5.8225
513.872	6.86231
516.765	6.70863
519.658	6.62927
522.551	6.65151
525.443	7.00418
528.336	6.94604
531.229	5.44311
534.121	5.37051
537.014	5.25204
539.907	4.36062
542.799	5.24423
545.692	4.01643
548.585	3.23462
551.478	3.6596
554.37	2.5168
557.263	1.91314
560.156	1.38804
563.048	2.14259
565.941	1.3954
568.834	1.16933
571.726	0.990562
574.619	1.6081
577.512	0.391388
580.405	0.717163
583.297	0.06691
586.19	0.418373
589.083	0.202362
591.975	0.302559
594.868	0.732368
597.761	0.10437
600.653	1.02369
603.546	0.341652
606.439	0.386108
609.332	0.356842
612.224	0.289093
615.117	0.631584
618.01	0.274796
620.902	0.971893
623.795	0.195511
626.688	0.246895
629.58	0.104935
632.473	0.292053
635.366	0.6231
638.259	0.471558
641.151	0.018761
644.044	1.00139
646.937	0.053253
649.829	0.743637
652.722	0.50489
655.615	0.462547
658.507	0.534805
661.4	0.847519
664.293	0.494789
667.186	0.683197
670.078	1.53567
672.971	1.01591
675.864	1.60648
678.756	1.7175
681.649	1.59401
684.542	1.76773
687.434	1.39154
690.327	1.93401
693.22	1.60406
696.112	2.11517
699.005	1.89231
701.898	1.29607
704.791	1.52581
707.683	0.74794
710.576	0.346466
713.469	0.475334
716.361	0.22319
719.254	0.724892
722.147	0.691589
725.04	0.850372
727.932	0.37915
730.825	0.001556
733.718	0.255333
736.61	0.704483
739.503	0.368607
742.396	0.136162
745.288	1.01677
748.181	0.858025
751.074	1.18982
753.967	0.864204
756.859	1.74651
759.752	0.853642
762.645	0.837273
765.537	0.26506
768.43	0.794147
771.323	0.172829
774.216	1.11244
777.108	0.572426
780.001	0.442375
782.894	0.043686
785.786	0.473824
788.679	0.450718
791.572	0.92804
794.464	0.534626
797.357	0.591282
800.25	0.589485
803.143	0.523441
806.035	0.378208
808.928	0.28693
811.821	1.03503
814.713	0.15321
817.606	1.05509
820.499	0.248676
823.391	1.42311
826.284	0.513397
829.177	0.482944
832.069	0.719814
834.962	1.78069
837.855	1.09731
840.748	1.52959
843.64	1.31291
846.533	1.14232
849.426	1.37833
852.318	1.16994
855.211	0.725494
858.104	1.13474
860.996	0.63987
863.889	1.35726
866.782	1.30323
869.675	1.17771
872.567	0.755482
875.46	0.199245
878.353	1.15837
881.245	0.781025
884.138	0.272274
887.031	0.811272
889.923	0.720776
892.816	0.743755
895.709	0.059334
898.602	0.210106
901.494	0.299831
904.387	0.017975
907.28	0.116116
910.172	0.261921
913.065	0.307186
915.958	0.516251
918.85	0.394299
921.743	0.047787
924.636	0.743763
927.529	0.550396
930.421	0.336002
933.314	0.380997
936.207	0.570965
939.099	0.762798
941.992	0.492397
944.885	0.232552
947.777	0.885086
950.67	0.783424
953.563	0.907887
956.456	0.67802
959.348	1.33162
962.241	0.841774
965.134	0.536636
968.026	0.963142
970.919	0.149776
973.812	1.12273
976.704	0.320065
979.597	0.639801
982.49	1.07779
985.383	0.17939
988.275	0.722961
991.168	0.658413
994.061	1.0294
996.953	0.304935
999.846	0.918804
1002.74	0.287231
1005.63	0.10651
1008.52	1.42065
1011.42	0.808704
1014.31	1.23425
1017.2	0.97065
1020.1	1.44707
1022.99	0.920834
1025.88	1.23075
1028.77	1.71334
1031.67	1.56267
1034.56	1.71545
1037.45	1.4563
1040.34	1.5641
1043.24	1.06973
1046.13	1.46598
1049.02	1.32583
1051.91	1.18548
1054.81	1.29591
1057.7	1.31946
1060.59	0.856209
1063.48	1.94012
1066.38	1.66086
1069.27	0.739922
1072.16	1.155
1075.06	1.08202
1077.95	0.870129
1080.84	0.127548
1083.73	0.125824
1086.63	0.972046
1089.52	0.704811
1092.41	0.194077
1095.31	0.363953
1098.2	0.243992
1101.09	0.281883
1103.98	1.01938
1106.88	0.50172
1109.77	0.131912
1112.66	0.109474
1115.55	0.221386
1118.45	0.303684
1121.34	0.002533
1124.23	0.214149
1127.12	0.015938
1130.02	0.122334
1132.91	0.396111
1135.8	0.429184
1138.7	0.373703
1141.59	0.005058
1144.48	0.657085
1147.37	0.151329
1150.27	0.423698
1153.16	0.805977
1156.05	0.787323
1158.94	0.042522
1161.84	0.982037
1164.73	0.286697
1167.62	0.959873
1170.52	1.00196
1173.41	1.02623
1176.3	0.625813
1179.19	0.788376
1182.09	0.351883
1184.98	0.749767
1187.87	0.609772
1190.76	0.090603
1193.66	0.964828
1196.55	0.426117
1199.44	0.645264
1202.34	0.173138
1205.23	0.646996
1208.12	0.452236
1211.01	1.09829
1213.91	0.310562
1216.8	0.11311
1219.69	0.801712
1222.58	0.152805
1225.48	0.868778
1228.37	0.775848
1231.26	0.645325
1234.15	0.914291
1237.05	0.299797
1239.94	0.952198
1242.83	0.12825
1245.72	0.346317
1248.62	0.57061
1251.51	0.222683
1254.4	0.934132
1257.3	0.423847
1260.19	0.126678
1263.08	0.117943
1265.97	0.184101
1268.87	0.543777
1271.76	0.268406
1274.65	0.000603
