Measurement: Raman, 780 nm, unoriented, Raman Data RAW
Mineral: Fluorapatite
Rruff sample: R050340
Ideal chemistry: Ca_5_(PO_4_)_3_F
Locality: Buckingham, Quebec, Canada
Source: California Institute of Technology
Description: Blue fragment
Measured chemistry: Ca_5.00_((P_0.98_Si_0.02_)O_4_)_3_F_1.00_
Raman shift (cm-1)	intensity
99.2731	233.078
102.648	232.277
106.023	235.245
109.397	241.277
112.772	251.736
116.147	268.851
119.522	270.055
122.897	285.858
126.272	298.117
129.646	285.739
133.021	313.25
136.396	316.68
139.771	338.895
143.146	327.88
146.52	339.433
149.895	337.641
153.27	374.781
156.645	379.68
160.02	395.34
163.395	407.315
166.769	417.101
170.144	427.845
173.519	444.405
176.894	468.874
180.269	487.272
183.643	512.127
187.018	543.924
190.393	558.587
193.768	613.051
197.143	608.934
200.518	666.388
203.892	669.286
207.267	681.638
210.642	706.435
214.017	729.3
217.392	740.121
220.766	757.684
224.141	789.623
227.516	827.705
230.891	858.982
234.266	918.87
237.641	933.511
241.015	987.762
244.39	1035.48
247.765	1102.04
251.14	1138.96
254.515	1204.88
257.889	1233.82
261.264	1284.23
264.639	1353.99
268.014	1443.58
271.389	1513.01
274.764	1596.74
278.138	1682.97
281.513	1747.88
284.888	1858.64
288.263	1976.73
291.638	2084.25
295.012	2222.61
298.387	2375.62
301.762	2534.78
305.137	2694.1
308.512	2893.68
311.887	3058.57
315.261	3261.71
318.636	3453.22
322.011	3690.04
325.386	3850.14
328.761	3986.71
332.135	4089.98
335.51	4117.87
338.885	4130.15
342.26	4118.6
345.635	4110.89
349.01	4061.97
352.384	4067.52
355.759	3963.13
359.134	3887.55
362.509	3773.61
365.884	3662.27
369.258	3553.03
372.633	3465.51
376.008	3386.07
379.383	3372.51
382.758	3356.44
386.132	3346.4
389.507	3282.18
392.882	3445.17
396.257	3461.35
399.632	3609.76
403.007	3679.87
406.381	3817.68
409.756	3939.1
413.131	4024.82
416.506	4186.3
419.881	4297.37
423.255	4375.7
426.63	4486.11
430.005	4496.56
433.38	4422.71
436.755	4258.57
440.13	4090.37
443.504	3971.84
446.879	3855.61
450.254	3763.86
453.629	3679.06
457.004	3679.27
460.378	3598.22
463.753	3625.67
467.128	3530.88
470.503	3517.1
473.878	3454.6
477.252	3418.89
480.627	3374.61
484.002	3299.54
487.377	3233.39
490.752	3215.24
494.127	3071.1
497.501	3089.84
500.876	2985.7
504.251	2949.73
507.626	2915.6
511.001	2878.23
514.375	2833.72
517.75	2801.24
521.125	2772.76
524.5	2778.93
527.875	2744.42
531.25	2717.54
534.624	2650.65
537.999	2602.37
541.374	2566.97
544.749	2528.51
548.124	2512.16
551.498	2488.48
554.873	2463.26
558.248	2456.64
561.623	2449.79
564.998	2474.51
568.372	2434.1
571.747	2415.14
575.122	2397.81
578.497	2394.33
581.872	2357.47
585.247	2332.19
588.621	2304.43
591.996	2243.32
595.371	2162.68
598.746	2153.38
602.121	2133.43
605.495	2138.73
608.87	2090.53
612.245	2075.76
615.62	2053.45
618.995	2009.6
622.37	2018.82
625.744	2035.88
629.119	2007.7
632.494	2009.66
635.869	1956.61
639.244	1974.13
642.619	1946.58
645.993	1958.33
649.368	1928.88
652.743	1905.85
656.118	1882.33
659.493	1867.33
662.867	1847.38
666.242	1808.35
669.617	1786.86
672.992	1758.16
676.367	1746.35
679.741	1742.57
683.116	1706.81
686.491	1672.82
689.866	1642.3
693.241	1642.8
696.615	1615.16
699.99	1624.9
703.365	1575.04
706.74	1558.74
710.115	1524.8
713.49	1516.39
716.864	1515.58
720.239	1512.36
723.614	1464.68
726.989	1474.44
730.364	1421.78
733.739	1423.98
737.113	1398.55
740.488	1398.68
743.863	1369.93
747.238	1388.59
750.612	1391.99
753.987	1405.32
757.362	1422.17
760.737	1431.56
764.112	1443.23
767.487	1462.55
770.861	1463.08
774.236	1500.34
777.611	1506.36
780.986	1537.85
784.361	1512.73
787.736	1549.73
791.11	1522.22
794.485	1514.58
797.86	1526.44
801.235	1507.19
804.61	1512.83
807.984	1472.65
811.359	1455.63
814.734	1462.42
818.109	1454.97
821.484	1450.05
824.859	1427.73
828.233	1446.92
831.608	1380.77
834.983	1366.39
838.358	1354.12
841.733	1314.06
845.107	1289.07
848.482	1251.19
851.857	1199.26
855.232	1155.9
858.607	1129.04
861.981	1061.7
865.356	1063.15
868.731	1019.73
872.106	1002.96
875.481	977.246
878.856	937.154
882.23	925.771
885.605	922.038
888.98	885.076
892.355	871.495
895.73	847.733
899.105	830.449
902.479	804.395
905.854	786.719
909.229	770.49
912.604	751.482
915.979	743.099
919.353	716.754
922.728	701.382
926.103	702.251
929.478	676.191
932.853	663.066
936.227	653.151
939.602	659.285
942.977	655.176
946.352	661.084
949.727	676.771
953.102	700.069
956.476	742.161
959.851	811.339
963.226	1011.17
966.601	912.576
969.976	707.311
973.35	658.256
976.725	612.381
980.1	610.042
983.475	619.593
986.85	628.64
990.225	633.991
993.599	642.853
996.974	655.891
1000.35	673.813
1003.72	686.749
1007.1	690.267
1010.47	690.121
1013.85	709.643
1017.22	735.36
1020.6	746.02
1023.97	765.386
1027.35	812.474
1030.72	804.951
1034.1	836.93
1037.47	881.826
1040.85	900.61
1044.22	931.258
1047.6	973.054
1050.97	985.621
1054.35	1008.52
1057.72	1096.16
1061.1	1091.94
1064.47	1137.33
1067.85	1192.72
1071.22	1251.57
1074.6	1294.63
1077.97	1385.35
1081.34	1438.74
1084.72	1508.94
1088.09	1643.22
1091.47	1780.28
1094.84	1910.49
1098.22	2017.23
1101.59	2070.64
1104.97	2161.17
1108.34	2231.99
1111.72	2327.03
1115.09	2496.41
1118.47	2634.17
1121.84	2833.51
1125.22	3085.27
1128.59	3335.74
1131.97	3577.87
1135.34	3928.58
1138.72	4125.88
1142.09	4477.72
1145.47	4668.12
1148.84	4928.44
1152.22	5205.31
1155.59	5511.99
1158.96	5901.66
1162.34	6348.19
1165.71	6745.61
1169.09	7236.12
1172.46	7698.68
1175.84	8164.32
1179.21	8554.01
1182.59	8947.83
1185.96	9314.31
1189.34	9626.22
1192.71	10089.6
1196.09	10539.8
1199.46	11139.8
1202.84	11838.8
1206.21	12555
1209.59	13325.2
1212.96	14108.6
1216.34	14966.7
1219.71	15828.2
1223.09	16579.1
1226.46	17487.9
1229.84	18331.4
1233.21	19538.4
1236.59	20788.9
1239.96	22042.9
1243.34	23940.4
1246.71	25925.5
1250.09	28293.7
1253.46	30811.3
1256.84	33511.6
1260.21	36145
1263.59	38460.9
1266.96	40319.8
1270.33	41645.2
1273.71	42125.9
1277.08	41998.7
1280.46	41246
1283.83	40256.8
