Measurement: Raman, 532 nm, unoriented, Raman Data Processed
Mineral: Fluorite
Rruff sample: R050115
Ideal chemistry: CaF_2_
Locality: Isthak Valley Iskardu, N.A. Gilgit, Pakistan
Source: Syed Shah
Description: Colorless fragment
Measured chemistry: CaF_2_
Raman shift (cm-1)	intensity
80.4807	0
83.8555	946.907
87.2303	2773.29
90.6052	5234.58
93.98	6645.45
97.3548	11001.6
100.73	8426.25
104.104	4423.13
107.479	1048.18
110.854	1499.12
114.229	2196.32
117.604	533.374
120.978	5234.03
124.353	18467.8
127.728	32338.9
131.103	45287.8
134.478	59827
137.853	64430.7
141.227	64060.2
144.602	69440.8
147.977	70735.9
151.352	68840.6
154.727	63258.8
158.101	56480.3
161.476	51370.6
164.851	46728.5
168.226	41813.4
171.601	36181.3
174.976	31374.9
178.35	28041.3
181.725	25850.5
185.1	24286.4
188.475	23037.6
191.85	22247.5
195.224	21349.2
198.599	19762.8
201.974	19555.1
205.349	20592.7
208.724	23086.5
212.099	26876.9
215.473	32835.8
218.848	41528.5
222.223	51829
225.598	63609.4
228.972	75340.8
232.347	81948.4
235.722	81179.9
239.097	74083.9
242.472	65007.3
245.847	56221.7
249.221	49663.1
252.596	43662.3
255.971	37702.8
259.346	31668.4
262.721	25751.4
266.096	20724
269.47	15993.5
272.845	11867
276.22	7665.03
279.595	4881.64
282.97	2994.99
286.344	1274.63
289.719	143.672
293.094	1576.33
296.469	1625.43
299.844	2024.51
303.219	1933.82
306.593	353.695
309.968	40.1797
313.343	516.438
316.718	2550.21
320.093	5743.69
323.467	5140.45
326.842	3109.28
330.217	2776.7
333.592	3761.61
336.967	4485.24
340.341	5535.4
343.716	6738.49
347.091	7560
350.466	7868.88
353.841	7468.81
357.216	7093.62
360.59	6450.99
363.965	5905.07
367.34	5280.88
370.715	4178.66
374.09	3466.67
377.464	2897.02
380.839	2258.95
384.214	1117.54
387.589	602.5
390.964	77.7578
394.339	104.547
397.713	288.148
401.088	656.758
404.463	170.242
407.838	479.266
411.213	438.852
414.587	200.914
417.962	200.977
421.337	165.117
424.712	112.094
428.087	269.734
431.461	559.688
434.836	790.719
438.211	1953.23
441.586	3144.12
444.961	4367.25
448.336	5666.08
451.71	7606.98
455.085	9400.05
458.46	11519
461.835	13571.4
465.21	16078.4
468.584	18265.8
471.959	20273
475.334	21607.1
478.709	22586.8
482.084	23019.1
485.459	22857.8
488.833	22269.7
492.208	21397.4
495.583	20672.6
498.958	19976.4
502.332	19190.2
505.707	17971.7
509.082	16896.7
512.457	15788.6
515.832	14676.8
519.207	13980.6
522.581	12509.3
525.956	10973.9
529.331	10121.3
532.706	9114.28
536.081	8402.78
539.456	7544.47
542.83	7589.72
546.205	7011.52
549.58	6160.84
552.955	4560.89
556.33	4143.98
559.704	3897.38
563.079	3603.75
566.454	2762.2
569.829	2392.38
573.204	1575.64
576.578	1312.76
579.953	162.75
583.328	172.211
586.703	647
590.078	811.273
593.452	768.508
596.827	628.328
600.202	581.391
603.577	235.094
606.952	415.82
610.327	969.586
613.701	2201.68
617.076	3027.23
620.451	4725.62
623.826	6741.88
627.201	8911.91
630.576	11472.2
633.95	14419.9
637.325	17731.7
640.7	21920.4
644.075	24541.8
647.45	26426.2
650.824	27436
654.199	27928.6
657.574	27710.5
660.949	27195.1
664.324	26503.9
667.698	25550.3
671.073	24091.1
674.448	22552.8
677.823	21730.5
681.198	20854.3
684.572	20427.5
687.947	20131.6
691.322	20231.3
694.697	20058
698.072	19676.8
701.447	19409.5
704.821	18523.6
708.196	17319.8
711.571	16565.5
714.946	15886.1
718.321	14679.8
721.696	13260
725.07	10931.4
728.445	8836.08
731.82	6748.75
735.195	5381.19
738.57	4169.09
741.944	2999.78
745.319	2053.88
748.694	1254.49
752.069	700.098
755.444	229.879
758.818	66.7773
762.193	433.566
765.568	513.055
768.943	453.906
772.318	300.291
775.692	153.156
779.067	135.188
782.442	689.584
785.817	938.266
789.192	1086.37
792.567	1032.39
795.941	1011.92
799.316	1224.69
802.691	1099.21
806.066	1031.33
809.441	746.885
812.816	573.096
816.19	425.041
819.565	438.56
822.94	296.005
826.315	180.782
829.69	82.9414
833.064	2.08398
836.439	39.2012
839.814	39.6523
843.189	119.565
846.564	265.928
849.938	427.305
853.313	540.735
856.688	584.399
860.063	719.675
863.438	924.319
866.812	985.145
870.187	1121.6
873.562	1094.98
876.937	1010.05
880.312	1072.78
883.687	1036.03
887.061	920.123
890.436	921.744
893.811	902.823
897.186	809.995
900.561	757.616
903.936	757.242
907.31	746.537
910.685	748.655
914.06	724.72
917.435	727.792
920.81	688.909
924.184	738.865
927.559	682.189
930.934	663.193
934.309	583.808
937.684	566.998
941.058	492.405
944.433	409.228
947.808	426.15
951.183	328.61
954.558	275.103
957.933	322.156
961.307	234.309
964.682	270.992
968.057	205.267
971.432	185.527
974.807	140.975
978.181	134.773
981.556	60.9578
984.931	54.4548
988.306	13.5757
991.681	30.9087
995.056	8.48608
998.43	46.1355
1001.8	30.6201
1005.18	17.5481
1008.55	15.8879
1011.93	17.2568
1015.3	9.34424
1018.68	24.5623
1022.05	16.4048
1025.43	27.488
1028.8	30.1209
1032.18	5.70483
1035.55	21.3896
1038.93	50.2283
1042.3	6.86279
1045.68	0.649658
1049.05	22.0879
1052.43	39.3623
1055.8	12.456
1059.18	25.9503
1062.55	19.1711
1065.93	6.69421
1069.3	27.9103
1072.68	54.8554
1076.05	50.229
1079.43	58.3082
1082.8	115.345
1086.17	58.0096
1089.55	105.647
1092.92	114.966
1096.3	114.567
1099.67	123.158
1103.05	134.675
1106.42	115.342
1109.8	89.1886
1113.17	74.4001
1116.55	83.9812
1119.92	40.9253
1123.3	52.8467
1126.67	66.13
1130.05	40.7993
1133.42	42.3285
1136.8	0.309082
1140.17	71.4694
1143.55	64.8063
1146.92	102.811
1150.3	63.3324
1153.67	93.3046
1157.05	107.003
1160.42	100.546
1163.8	105.511
1167.17	88.6792
1170.55	69.4254
1173.92	86.7679
1177.3	92.382
1180.67	48.3743
1184.05	92.6343
1187.42	41.2049
1190.8	38.2615
1194.17	36.012
1197.54	41.7464
1200.92	36.0007
1204.29	28.7249
1207.67	35.6153
1211.04	8.69714
1214.42	58.6987
1217.79	13.3151
1221.17	0.096375
1224.54	2.53449
1227.92	32.2996
1231.29	64.1539
1234.67	53.168
1238.04	53.7873
1241.42	26.5814
1244.79	10.7365
1248.17	14.2905
1251.54	52.0785
1254.92	72.7969
1258.29	16.7222
1261.67	19.1191
1265.04	31.4078
1268.41	29.7075
1271.79	32.4143
1275.16	29.7314
1278.54	11.0328
1281.91	25.4019
1285.29	14.941
1288.66	21.1905
1292.04	4.74072
