Measurement: Raman, 780 nm, unoriented, Raman Data Processed
Mineral: Fluorcalciopyrochlore
Rruff sample: R060288
Ideal chemistry: (Ca,Na)_2_(Nb^5+^,Ti^4+^)_2_O_6_F
Locality: Tatarka River, Krasnoyarskiy Kray, Siberia, Russia
Source: Herb Obodda
Description: Brown fragment
Measured chemistry: (Ca_0.95_Na_0.90_Sr_0.06_Ce_0.01_)_Σ1.92_(Nb_1.96_Ti_0.04_)_Σ2_O_6_F_0.91_
Raman shift (cm-1)	intensity
104.068	0
106.961	38.4258
109.854	17.3164
112.746	31.0742
115.639	53.9961
118.532	199.324
121.424	229.34
124.317	477.5
127.21	697.926
130.102	890.566
132.995	1067.91
135.888	1097.22
138.781	1252.27
141.673	1408.66
144.566	1735.43
147.459	1721.34
150.351	1576.18
153.244	1357.4
156.137	1256.61
159.03	1143.7
161.922	917.945
164.815	848.598
167.708	725.231
170.6	470.809
173.493	364.961
176.386	156.75
179.278	167.824
182.171	147.043
185.064	380.269
187.957	702.512
190.849	1069.02
193.742	1757.59
196.635	2425.74
199.527	3272
202.42	4304.11
205.313	5537.65
208.205	6823.74
211.098	8180.61
213.991	9468.76
216.884	10518.4
219.776	11423.3
222.669	11808.3
225.562	11801.8
228.454	11507.9
231.347	10692.5
234.24	9870.18
237.132	8843.34
240.025	7563.22
242.918	6311.73
245.811	5101.94
248.703	4021.6
251.596	2861.02
254.489	1928.68
257.381	1115.2
260.274	610.023
263.167	138.898
266.059	215.484
268.952	241.367
271.845	172.094
274.738	279.547
277.63	1046.4
280.523	1786.41
283.416	2751.95
286.308	3631.31
289.201	4695.05
292.094	5714.69
294.986	6363.66
297.879	6794.16
300.772	6993.98
303.665	6712.75
306.557	6119.09
309.45	5258.69
312.343	4534.78
315.235	3697.55
318.128	2750.23
321.021	1925.77
323.913	914.828
326.806	261.688
329.699	472.711
332.592	815.617
335.484	788.938
338.377	359.195
341.27	232.414
344.162	1224.19
347.055	2135.98
349.948	3782.89
352.841	5369.51
355.733	6888.06
358.626	8507.75
361.519	9838.19
364.411	11103.5
367.304	11850.9
370.197	12809.4
373.089	12836.5
375.982	12778.7
378.875	12610.1
381.767	12289
384.66	11549.6
387.553	10779.9
390.446	9682.62
393.338	8554.83
396.231	7486.19
399.124	6809.48
402.016	6149.76
404.909	5919.45
407.802	5688.75
410.695	5697.74
413.587	5581.17
416.48	5574.58
419.373	5567.19
422.265	5754.14
425.158	5741.56
428.051	5674.23
430.943	5850.52
433.836	5723.58
436.729	5590.12
439.622	5693.51
442.514	5922.84
445.407	6017.35
448.3	6447.98
451.192	6783.01
454.085	7244.72
456.978	7872.16
459.87	8434.8
462.763	9171.22
465.656	9553.04
468.548	9859.65
471.441	9919.98
474.334	9580.34
477.227	9051.09
480.119	8574.61
483.012	7888.69
485.905	7122.64
488.797	6176.52
491.69	5281.77
494.583	4476.84
497.476	3555.7
500.368	2331.64
503.261	1404.74
506.154	700.508
509.046	81.2422
511.939	362.711
514.832	634.258
517.724	861.984
520.617	783.609
523.51	526.953
526.403	142.57
529.295	424.398
532.188	1013.15
535.081	1532.66
537.973	1854.19
540.866	2167.99
543.759	2441.71
546.651	2727.95
549.544	2910.88
552.437	3035.53
555.33	3034.26
558.222	3057.76
561.115	3069.14
564.008	3081.52
566.9	2995.66
569.793	2953.34
572.686	2491.62
575.578	2370.63
578.471	2218.43
581.364	2144.23
584.256	2204.08
587.149	2770.16
590.042	3264.7
592.935	3823.02
595.827	4388.05
598.72	5214.71
601.613	5692.62
604.505	6399.32
607.398	7001.18
610.291	7401.69
613.183	7726.65
616.076	7921.54
618.969	7911.12
621.862	7656.97
624.754	7493.64
627.647	7057.44
630.54	6771.12
633.432	6210.07
636.325	5549.1
639.218	5041.05
642.111	4425.4
645.003	3737.19
647.896	3041.95
650.789	2546.08
653.681	2115.38
656.574	1573.64
659.467	1328.45
662.359	1039.69
665.252	753.894
668.145	605.715
671.038	372.613
673.93	331.426
676.823	272.941
679.716	269.891
682.608	206.312
685.501	106.769
688.394	108.023
691.286	75.2578
694.179	12.5938
697.072	78.9648
699.965	23.9141
702.857	169.172
705.75	201.066
708.643	101.141
711.535	159.832
714.428	77.9961
717.321	11.4062
720.213	102.262
723.106	220.512
725.999	375.887
728.891	484.043
731.784	646.918
734.677	598.375
737.57	855.973
740.462	927.945
743.355	1063.31
746.248	1068.31
749.14	1074.77
752.033	1057.19
754.926	941.328
757.818	937.547
760.711	763.18
763.604	621.227
766.497	521.43
769.389	288.445
772.282	216.996
775.175	55.3945
778.067	45.457
780.96	6.75781
783.853	45.9922
786.745	56.7734
789.638	115.207
792.531	72.0234
795.424	187.16
798.316	200.953
801.209	249.883
804.102	217.133
806.994	516.891
809.887	533.793
812.78	539.969
815.673	691.641
818.565	773.863
821.458	835.602
824.351	838.934
827.243	685.644
830.136	595.461
833.029	439.461
835.921	331.668
838.814	215.656
841.707	144.535
844.6	74.3594
847.492	193.297
850.385	179.406
853.278	215.644
856.17	290.527
859.063	376.297
861.956	452.277
864.848	596.621
867.741	823.219
870.634	1013.53
873.527	1285.49
876.419	1580.68
879.312	1804.18
882.205	2198.73
885.097	2415.03
887.99	2478.18
890.883	2592.26
893.775	2627.44
896.668	2569.23
899.561	2536
902.454	2454.27
905.346	2184.21
908.239	1886.36
911.132	1729.11
914.024	1473.86
916.917	1308.19
919.81	1080.59
922.702	750.438
925.595	394.402
928.488	141.812
931.381	26.5859
934.273	199.758
937.166	225.441
940.059	354.504
942.951	359.926
945.844	216.039
948.737	67.25
951.63	115.527
954.522	257.547
957.415	575.141
960.308	911.555
963.2	1281.09
966.093	1797.75
968.986	2191.29
971.878	2861.45
974.771	3332.27
977.664	3587.41
980.557	3944.2
983.449	4050.05
986.342	4245.37
989.235	4297.91
992.127	4132.67
995.02	3959.76
997.913	3799.05
1000.8	3601.8
1003.7	3236.22
1006.59	2998.47
1009.48	2868.17
1012.38	2727.48
1015.27	2519.97
1018.16	2531.07
1021.05	2667.2
1023.95	2806.02
1026.84	3134.77
1029.73	3294.7
1032.62	3599.45
1035.52	3834.04
1038.41	4635.68
1041.3	4844.35
1044.2	5594.95
1047.09	6157.55
1049.98	6887.5
1052.87	7188.53
1055.77	7460.68
1058.66	7856.48
1061.55	8521.45
1064.44	8892.59
1067.34	9282.25
1070.23	9522.41
1073.12	10037.4
1076.02	10634.8
1078.91	10257
1081.8	9972.06
1084.69	9446.19
1087.59	8627.12
1090.48	7892.55
1093.37	6735.69
1096.27	5525.53
1099.16	4648.34
1102.05	3895.42
1104.94	3207.77
1107.84	2734.39
1110.73	2053.78
1113.62	1301.3
1116.51	551.672
1119.41	91.5469
1122.3	129.156
1125.19	47.0469
1128.08	415.719
1130.98	786.812
1133.87	430.969
1136.76	1137.36
1139.65	2982.69
1142.55	4939.27
1145.44	6216.33
1148.33	7617.52
1151.23	8435.08
1154.12	9075.59
1157.01	9235.25
1159.9	9285.91
1162.8	7626.03
1165.69	6832.25
1168.58	6091.47
1171.47	5241.09
1174.37	4769.81
1177.26	2902.12
1180.15	2118.91
1183.05	1183.94
1185.94	363.531
1188.83	32.2188
