Measurement: Raman, 780 nm, unoriented, Raman Data Processed
Mineral: Fluorite
Rruff sample: R060548
Ideal chemistry: CaF_2_
Locality: unknown
Source: Gemological Institute of America
Description: Pale blue fragment
Measured chemistry: Ca_1.00_F_2.00_
Raman shift (cm-1)	intensity
90.5957	0
93.9705	29.3348
97.3453	25.4693
100.72	14.553
104.095	6.33386
107.47	1.13841
110.845	3.21249
114.219	3.19174
117.594	9.75421
120.969	16.8112
124.344	29.1689
127.719	41.9109
131.094	55.8883
134.468	70.9932
137.843	88.3232
141.218	94.9079
144.593	95.98
147.968	96.1904
151.342	92.4091
154.717	79.3697
158.092	64.5894
161.467	47.4056
164.842	31.3348
168.216	23.5541
171.591	13.8157
174.966	7.51312
178.341	6.59639
181.716	3.29564
185.09	3.10603
188.465	6.08373
191.84	2.44348
195.215	1.34346
198.59	1.35086
201.965	5.07852
205.339	3.69104
208.714	0.725616
212.089	0.734222
215.464	7.11289
218.839	14.6706
222.214	24.2154
225.588	41.6879
228.963	62.648
232.338	88.1958
235.713	123.275
239.088	154.999
242.462	188.85
245.837	223.733
249.212	256.862
252.587	291.765
255.962	329.541
259.336	343.339
262.711	312.768
266.086	267.798
269.461	222.439
272.836	173.069
276.211	133.99
279.585	113.13
282.96	93.3967
286.335	73.449
289.71	60.2878
293.085	41.7687
296.459	26.7278
299.834	11.3285
303.209	0.70575
306.584	4.33807
309.959	3.91019
313.334	10.2805
316.708	40.1472
320.083	94.5442
323.458	135.141
326.833	119.683
330.207	130.456
333.582	157.009
336.957	187.867
340.332	202.713
343.707	190.384
347.082	177.053
350.456	170.258
353.831	168.242
357.206	170.818
360.581	165.191
363.956	159.873
367.33	140.151
370.705	127.818
374.08	111.181
377.455	97.6964
380.83	86.9308
384.205	74.4641
387.579	64.1286
390.954	49.3277
394.329	35.4922
397.704	24.8853
401.079	15.4075
404.453	10.2761
407.828	3.83319
411.203	0.69986
414.578	2.80371
417.953	4.41129
421.327	3.07565
424.702	1.05753
428.077	7.08917
431.452	16.9231
434.827	30.5114
438.202	47.909
441.576	68.5045
444.951	89.0746
448.326	110.552
451.701	131.806
455.076	141.724
458.45	145.595
461.825	139.116
465.2	124.747
468.575	110.763
471.95	96.8633
475.325	76.9034
478.699	62.3399
482.074	51.9474
485.449	41.424
488.824	32.5566
492.199	26.5768
495.573	19.3496
498.948	11.7977
502.323	8.3801
505.698	5.20453
509.073	2.58635
512.447	1.03502
515.822	0.993271
519.197	1.76042
522.572	1.62143
525.947	1.10368
529.322	4.03032
532.696	5.94409
536.071	12.2246
539.446	17.8594
542.821	23.6553
546.196	29.3086
549.57	35.3633
552.945	43.6505
556.32	46.9603
559.695	52.7182
563.07	55.0935
566.444	57.4208
569.819	56.5854
573.194	55.5211
576.569	51.2345
579.944	46.9326
583.319	43.9164
586.693	39.1725
590.068	35.2922
593.443	30.5836
596.818	28.4407
600.193	26.1109
603.567	22.0018
606.942	19.2624
610.317	15.5813
613.692	13.9353
617.067	9.72681
620.442	6.6952
623.816	6.41771
627.191	3.00104
630.566	1.96977
633.941	0.634392
637.316	0.786438
640.69	0.698135
644.065	0.293053
647.44	0.643112
650.815	0.143272
654.19	0.947746
657.564	0.330872
660.939	2.06249
664.314	1.76003
667.689	1.8265
671.064	4.0144
674.439	5.41264
677.813	5.16608
681.188	5.18529
684.563	3.31888
687.938	6.6919
691.313	7.47334
694.688	7.13242
698.062	6.13021
701.437	5.83048
704.812	6.07151
708.187	3.60747
711.562	4.17082
714.936	3.66095
718.311	2.2261
721.686	1.81065
725.061	1.6227
728.436	1.1333
731.81	1.60211
735.185	0.505844
738.56	0.527153
741.935	0.580902
745.31	0.278511
748.684	0.14489
752.059	1.28971
755.434	1.04341
758.809	4.26272
762.184	5.56864
765.559	9.02299
768.933	9.21619
772.308	13.8854
775.683	19.614
779.058	25.4652
782.433	36.8788
785.808	51.6872
789.182	73.2063
792.557	102.456
795.932	137.136
799.307	174.231
802.682	185.62
806.056	164.702
809.431	120.783
812.806	82.2175
816.181	51.3928
819.556	30.9721
822.93	19.7804
826.305	13.1879
829.68	7.70869
833.055	2.19833
836.43	0.062897
839.804	1.06151
843.179	2.87148
846.554	0.773529
849.929	0.273163
853.304	0.597946
856.679	1.27657
860.053	1.8429
863.428	2.72063
866.803	3.15944
870.178	4.99864
873.553	6.15569
876.927	9.99499
880.302	16.0443
883.677	23.6641
887.052	32.6448
890.427	45.9397
893.802	50.0283
897.176	43.0814
900.551	37.8997
903.926	40.5251
907.301	55.0244
910.676	78.6113
914.05	110.557
917.425	125.715
920.8	91.5084
924.175	46.5588
927.55	20.0887
930.924	5.60367
934.299	1.13034
937.674	2.29874
941.049	0.123291
944.424	2.81619
947.799	9.00012
951.173	12.3626
954.548	19.088
957.923	23.7481
961.298	26.4799
964.673	27.2014
968.047	29.0695
971.422	30.7851
974.797	32.5286
978.172	34.1097
981.547	38.399
984.922	41.7145
988.296	43.6867
991.671	32.1222
995.046	16.6714
998.421	4.23056
1001.8	4.33286
1005.17	6.04361
1008.54	5.94199
1011.92	2.16177
1015.29	2.15042
1018.67	3.24249
1022.04	6.33069
1025.42	14.7551
1028.79	24.432
1032.17	28.2366
1035.54	45.8814
1038.92	66.3682
1042.29	87.3419
1045.67	112.732
1049.04	136.434
1052.42	154.717
1055.79	161.886
1059.17	164.889
1062.54	135.314
1065.92	108.044
1069.29	87.9019
1072.67	66.0619
1076.04	50.8459
1079.42	38.1402
1082.79	31.0986
1086.17	34.0385
1089.54	45.3379
1092.92	57.5505
1096.29	70.1642
1099.66	83.3859
1103.04	98.9956
1106.41	118.762
1109.79	156.441
1113.16	193.274
1116.54	229.024
1119.91	250.885
1123.29	243.679
1126.66	198.759
1130.04	142.663
1133.41	82.3872
1136.79	33.8369
1140.16	7.90064
1143.54	19.386
1146.91	26.0786
1150.29	25.5819
1153.66	9.6322
1157.04	16.6486
1160.41	59.0532
1163.79	133.523
1167.16	233.933
1170.54	371.357
1173.91	554.013
1177.29	797.413
1180.66	1166.69
1184.04	1677.79
1187.41	2382.28
1190.79	3265.61
1194.16	4278.39
1197.54	5298.53
1200.91	6056.58
1204.28	6331.21
1207.66	6218.04
1211.03	6139.11
1214.41	6291.76
1217.78	6862.51
1221.16	7586.5
1224.53	7820.69
1227.91	6953.64
1231.28	5326.66
1234.66	3764.06
1238.03	2591.44
1241.41	1788.68
1244.78	1244.06
1248.16	835.904
1251.53	494.988
1254.91	241.695
1258.28	91.1052
1261.66	21.5998
1265.03	5.57715
1268.41	5.95825
1271.78	11.1873
1275.16	36.8276
1278.53	33.4219
1281.9	23.229
