Measurement: Raman, 532 nm, unoriented, Raman Data Processed
Mineral: Fluoro-edenite
Rruff sample: R070003
Ideal chemistry: NaCa_2_Mg_5_(Si_7_Al)O_22_F_2_
Locality: Cobden, Ontario, Canada
Source: Michael Scott
Description: Black to very dark green single crystal fragment
Measured chemistry: (Na_0.55_K_0.35_[box]_0.10_)_Σ=1_(Ca_1.65_Na_0.35_)_Σ=2_(Mg_2.42_Fe^2+^_1.81_Fe^3+^_0.52_Al_0.14_Ti_0.07_Mn_0.04_)_Σ=5_(Si_6.65_Al_1.35_)O_22_(F_1.03_(OH)_0.94_Cl_0.03_)_Σ=2_; (OH) estimated by difference
Raman shift (cm-1)	intensity
153.074	0
156.448	40.1098
159.823	16.4553
163.198	18.0306
166.573	11.9842
169.948	37.0143
173.322	43.3481
176.697	73.2474
180.072	56.5272
183.447	61.4125
186.822	57.8239
190.197	31.3987
193.571	24.6391
196.946	38.291
200.321	29.6889
203.696	17.7447
207.071	30.2727
210.446	33.8034
213.82	54.9905
217.195	86.8998
220.57	80.9866
223.945	100.265
227.32	101.688
230.694	93.3683
234.069	106.097
237.444	65.4588
240.819	45.9384
244.194	45.4228
247.569	45.3308
250.943	7.37518
254.318	39.0091
257.693	21.4269
261.068	12.8869
264.443	8.47931
267.817	3.44428
271.192	18.6624
274.567	14.1241
277.942	32.4577
281.317	39.3727
284.692	43.7893
288.066	51.0576
291.441	46.5815
294.816	36.7619
298.191	57.485
301.566	33.5994
304.94	54.0043
308.315	2.65478
311.69	41.1538
315.065	17.5566
318.44	1.88556
321.815	23.9576
325.189	3.97138
328.564	14.0721
331.939	33.238
335.314	31.4387
338.689	34.3978
342.063	54.1863
345.438	27.2996
348.813	51.4572
352.188	66.9343
355.563	72.9186
358.938	83.6116
362.312	88.4103
365.687	59.4579
369.062	59.3094
372.437	79.7223
375.812	72.2661
379.186	52.8131
382.561	46.6762
385.936	38.4948
389.311	8.7525
392.686	7.28241
396.06	33.6143
399.435	13.3846
402.81	5.6391
406.185	12.3549
409.56	0.525391
412.935	20.693
416.309	28.2548
419.684	16.1421
423.059	43.885
426.434	68.0065
429.809	55.2002
433.183	45.0799
436.558	43.6139
439.933	49.4854
443.308	49.6392
446.683	26.5794
450.058	40.2724
453.432	11.046
456.807	2.83212
460.182	5.82022
463.557	5.22818
466.932	1.81262
470.307	6.18515
473.681	9.9245
477.056	12.8002
480.431	24.5377
483.806	31.5912
487.18	25.2555
490.555	35.9669
493.93	62.6498
497.305	79.7761
500.68	98.6328
504.055	109.079
507.429	142.459
510.804	143.657
514.179	165.702
517.554	176.894
520.929	185.555
524.303	209.608
527.678	242.284
531.053	246.086
534.428	240.093
537.803	251.327
541.178	229.955
544.552	234.419
547.927	233.064
551.302	207.974
554.677	206.238
558.052	212.238
561.427	178.986
564.801	165.905
568.176	132.709
571.551	135.713
574.926	102.468
578.301	105.204
581.675	46.7602
585.05	40.441
588.425	19.7311
591.8	1.38748
595.175	0.079834
598.549	7.38583
601.924	16.1776
605.299	4.09576
608.674	0.311951
612.049	3.20694
615.424	9.64923
618.798	5.40332
622.173	11.4044
625.548	6.22626
628.923	34.0412
632.298	34.6487
635.673	25.3343
639.047	34.5317
642.422	33.0674
645.797	67.6087
649.172	72.7755
652.547	93.7756
655.921	157.377
659.296	209.32
662.671	234.245
666.046	299.23
669.421	279.155
672.795	232.911
676.17	189.707
679.545	139.598
682.92	109.035
686.295	71.2947
689.67	47.6891
693.044	52.8409
696.419	47.4971
699.794	54.147
703.169	33.6619
706.544	72.701
709.918	100.934
713.293	100.889
716.668	129.676
720.043	121.572
723.418	137.547
726.793	112.087
730.167	119.621
733.542	91.697
736.917	88.5709
740.292	65.7913
743.667	44.6572
747.042	39.4347
750.416	29.2005
753.791	4.53247
757.166	6.16809
760.541	19.2477
763.916	23.0419
767.29	23.1096
770.665	9.32513
774.04	41.0195
777.415	37.5662
780.79	34.6713
784.164	24.9159
787.539	35.5021
790.914	40.0262
794.289	30.5281
797.664	20.6985
801.039	39.0892
804.413	20.8169
807.788	12.3599
811.163	16.8658
814.538	12.9361
817.913	20.5663
821.288	10.6204
824.662	8.43506
828.037	2.93512
831.412	9.12079
834.787	6.05914
838.162	9.81146
841.536	18.1057
844.911	10.5224
848.286	17.855
851.661	25.1255
855.036	8.7608
858.41	45.2585
861.785	34.3246
865.16	23.0801
868.535	41.4355
871.91	42.897
875.284	29.2337
878.659	22.2383
882.034	21.9749
885.409	40.9478
888.784	31.3211
892.159	36.9374
895.533	38.8454
898.908	32.9716
902.283	49.6282
905.658	33.4102
909.033	29.7941
912.408	27.4807
915.782	49.1558
919.157	31.5591
922.532	45.4135
925.907	31.7294
929.282	30.6357
932.657	52.7352
936.031	42.8386
939.406	43.282
942.781	51.879
946.156	31.6204
949.531	39.1605
952.905	15.8642
956.28	33.6301
959.655	11.7007
963.03	6.03571
966.405	31.5219
969.779	6.94983
973.154	23.3565
976.529	30.0828
979.904	0.007202
983.279	0.359558
986.654	11.9337
990.028	11.1691
993.403	0.220215
996.778	8.82837
1000.15	30.3107
1003.53	27.7583
1006.9	26.7347
1010.28	33.1169
1013.65	28.3336
1017.03	19.3378
1020.4	34.3655
1023.78	44.3624
1027.15	9.1723
1030.53	26.0118
1033.9	33.9578
1037.28	32.9824
1040.65	33.7919
1044.03	22.8422
1047.4	34.9223
1050.78	20.6659
1054.15	31.2355
1057.53	43.4951
1060.9	10.7199
1064.27	38.3735
1067.65	22.0242
1071.02	21.7843
1074.4	20.6572
1077.77	3.5921
1081.15	4.54944
1084.52	9.56055
1087.9	34.7465
1091.27	0.463928
1094.65	39.1083
1098.02	27.0359
1101.4	38.1551
1104.77	17.0446
1108.15	11.738
1111.52	47.0465
1114.9	25.4451
1118.27	40.6741
1121.65	0.14917
1125.02	29.3744
1128.4	7.00018
1131.77	18.833
1135.15	6.50793
1138.52	0.486511
1141.89	13.9445
1145.27	24.0538
1148.64	5.52344
1152.02	5.02441
1155.39	20.6423
1158.77	23.6863
1162.14	6.957
1165.52	17.8434
1168.89	23.5261
1172.27	24.0744
1175.64	12.9429
1179.02	37.5769
1182.39	37.1616
1185.77	18.7421
1189.14	43.8494
1192.52	30.9607
1195.89	28.0106
1199.27	12.9334
1202.64	25.157
1206.02	20.7937
1209.39	30.0344
1212.77	24.6177
1216.14	44.252
1219.52	28.7963
1222.89	14.1342
1226.27	25.4955
1229.64	37.9917
1233.02	2.91446
1236.39	23.5963
1239.77	43.4855
1243.14	42.6083
1246.52	39.2897
1249.89	38.2863
1253.26	7.45819
1256.64	30.6794
1260.01	33.9747
1263.39	23.3505
1266.76	16.6308
1270.14	42.9457
1273.51	15.1744
1276.89	6.3905
1280.26	36.1638
1283.64	2.78485
1287.01	31.845
1290.39	15.3749
1293.76	12.1621
1297.14	1.48907
1300.51	31.1533
1303.89	0.856384
1307.26	1.72998
1310.64	20.6219
