Measurement: Raman, 514 nm, unoriented, Raman Data Processed
Mineral: Fluorite
Rruff sample: R050115
Ideal chemistry: CaF_2_
Locality: Isthak Valley Iskardu, N.A. Gilgit, Pakistan
Source: Syed Shah
Description: Colorless fragment
Measured chemistry: CaF_2_
Raman shift (cm-1)	intensity
110.082	0
114.254	20.041
118.424	105.535
122.592	43.33
126.758	64.162
130.922	360.896
135.083	771.403
139.243	1876.66
143.401	2250.24
147.557	1489.07
151.711	452.246
155.863	178.79
160.013	120.732
164.161	174.385
168.308	41.046
172.452	20.563
176.594	22.824
180.734	59.739
184.872	36.237
189.008	61.617
193.143	48.907
197.275	42.728
201.405	37.154
205.534	22.448
209.66	97.524
213.784	287.866
217.907	413.407
222.027	732.117
226.146	824.006
230.263	699.068
234.377	760.316
238.49	995.735
242.601	1127.33
246.709	809.11
250.816	719.016
254.921	830.123
259.024	1328.34
263.125	1494.77
267.224	1261.28
271.321	1509.05
275.416	1633.07
279.51	1857.83
283.601	2067.47
287.69	1979.92
291.778	1749.75
295.863	1630.32
299.947	1474.9
304.029	1362.28
308.108	1425.98
312.186	1879.94
316.262	2822.26
320.336	4054.23
324.408	2940.87
328.478	1807.41
332.546	1380.23
336.612	1117.28
340.677	1009.65
344.739	1048.05
348.799	887.939
352.858	1012.83
356.915	884.757
360.969	875.043
365.022	860.648
369.073	842.2
373.122	545.388
377.169	507.94
381.215	377.088
385.258	226.151
389.299	230.468
393.339	169.608
397.376	265.702
401.412	98.986
405.446	71.535
409.478	20.396
413.508	44.62
417.536	34.341
421.562	34.938
425.586	23.227
429.609	62.238
433.629	42.213
437.648	53.385
441.665	64.197
445.68	42.397
449.693	73.843
453.704	117.394
457.713	45.063
461.721	66.962
465.726	15.356
469.73	4.019
473.731	242.39
477.731	79.869
481.729	164.163
485.725	349.086
489.72	289.911
493.712	327.695
497.703	296.07
501.691	412.729
505.678	462.916
509.663	309.135
513.646	352.095
517.627	490.075
521.607	529.812
525.584	415.465
529.56	471.073
533.534	318.922
537.506	463.03
541.476	407.544
545.444	476.723
549.41	424.152
553.375	507.415
557.337	551.917
561.298	380.821
565.257	436.448
569.214	507.579
573.17	517.499
577.123	596.101
581.075	657.698
585.024	620.569
588.972	733.49
592.918	660.106
596.863	698.582
600.805	654.432
604.746	669.914
608.685	499.304
612.621	584.577
616.557	392.69
620.49	568.862
624.421	286.107
628.351	449.688
632.279	388.863
636.205	318.193
640.129	233.395
644.051	280.282
647.972	239.281
651.89	96.384
655.807	112.816
659.722	255.828
663.636	313.383
667.547	522.893
671.457	378.861
675.365	259.857
679.271	157.374
683.175	460.649
687.077	819.397
690.978	920.934
694.877	715.271
698.774	332.178
702.669	202.624
706.562	418.068
710.454	389.22
714.344	207.672
718.232	98.822
722.118	29.476
726.002	61.171
729.885	61.474
733.766	54.818
737.645	12.701
741.522	138.982
745.397	88.424
749.271	197.133
753.143	308.328
757.013	463.771
760.881	733.219
764.748	1013.52
768.613	1102.54
772.476	1556.19
776.337	2095.64
780.196	2313.22
784.054	2574.13
787.91	2866.69
791.764	3593.44
795.616	4450.41
799.467	5091.57
803.316	5541.07
807.163	5781.4
811.008	5162.71
814.851	5023.02
818.693	5296.6
822.533	5602.96
826.371	6132.73
830.208	7129.17
834.042	8094.32
837.875	7809.41
841.706	8544.08
845.536	10035
849.363	12310.7
853.189	14065.5
857.013	17428.7
860.836	21690
864.656	27494.3
868.475	33611.1
872.292	37092.9
876.108	36067.4
879.922	32375.7
883.733	27477.8
887.544	23155.8
891.352	19726.7
895.159	16384.4
898.964	13522.1
902.767	10869.6
906.568	10604.6
910.368	18800
914.166	9890.51
917.962	6822.7
921.757	10624.7
925.55	11322.4
929.341	9007.06
933.13	6036.6
936.918	8509.09
940.703	4066.61
944.488	9416.19
948.27	22269.9
952.051	4201.76
955.83	1074.86
959.607	1250.25
963.383	149.053
967.156	584.135
970.928	511.594
974.699	570.703
978.468	512.295
982.234	236.834
986	28.732
989.763	399.021
993.525	494.695
997.285	808.922
1001.04	1409.78
1004.8	1619.36
1008.55	1679.76
1012.31	2121.06
1016.06	2147.31
1019.81	2138.57
1023.56	2251.87
1027.31	2516.36
1031.05	2673.28
1034.79	3000.87
1038.53	3069.02
1042.27	3180.98
1046.01	3699.76
1049.75	4351.41
1053.48	4699.89
1057.22	4430.57
1060.95	4333.43
1064.68	4484.28
1068.4	4366.56
1072.13	3967.29
1075.86	3726.53
1079.58	3480.67
1083.3	3493.67
1087.02	3907.67
1090.74	3669.32
1094.45	3603.68
1098.17	3993.77
1101.88	4333.62
1105.59	4706.27
1109.3	4990.75
1113.01	4843.64
1116.71	4875.75
1120.42	4575.43
1124.12	4045.24
1127.82	3591.53
1131.52	3317.29
1135.22	2818.27
1138.91	2706.27
1142.61	1994.27
1146.3	2015.17
1149.99	1476.76
1153.68	1399.19
1157.37	1145.06
1161.06	1282.28
1164.74	962.021
1168.42	966.346
1172.1	642.281
1175.78	700.848
1179.46	586.064
1183.14	522.953
1186.81	505.529
1190.48	372.816
1194.15	378.824
1197.83	650.586
1201.49	539.115
1205.16	1042.52
1208.82	686.775
1212.49	969.906
1216.15	1022.91
1219.81	1108.01
1223.46	820.023
1227.12	927.973
1230.78	1034.82
1234.43	987.551
1238.08	967.082
1241.73	764.141
1245.38	630.715
1249.03	631.844
1252.67	678.551
1256.31	817.867
1259.95	747.941
1263.6	468.027
1267.23	504.258
1270.87	149.152
1274.51	164.094
1278.14	28.797
1281.77	207.906
1285.4	112.07
1289.03	272.039
1292.66	0.785
1296.28	29.309
1299.91	0.391
1303.53	30.328
1307.15	19.484
1310.77	468.039
1314.38	317.375
1318	745.543
1321.61	1060.57
1325.23	1429.49
1328.84	1542.37
1332.45	2238.22
1336.06	2616.11
1339.66	2877.38
1343.27	3140.1
1346.87	3627
1350.47	4493.32
1354.07	5505.75
1357.67	7180.26
1361.26	11056
1364.86	10005.6
1368.45	6477.37
1372.04	4897.73
1375.63	4526.34
1379.22	4788.5
1382.81	4910.06
1386.39	4626.95
1389.98	4737.93
1393.56	6115.01
1397.14	8695.12
1400.72	6474.12
1404.3	4059.99
1407.87	3018.2
1411.45	2758.29
1415.02	2810.45
1418.59	2570.32
1422.16	3019.69
1425.73	3575.47
1429.29	4020.59
1432.86	3214.9
1436.42	2842.01
1439.98	2318.54
1443.54	2603.04
1447.1	2861.22
1450.66	2431.49
1454.21	1735.05
1457.77	1173.01
1461.32	1166.38
1464.87	1355.17
1468.42	1212.66
1471.96	927.127
1475.51	457.688
1479.06	73.441
1482.6	20.969
1486.14	8.092
1489.68	79.988
1493.22	255.576
1496.75	169.602
1500.29	143.07
1503.82	181.324
1507.35	307.312
1510.88	434.729
1514.41	217.594
1517.94	83.076
1521.46	0
