Measurement: Raman, 532 nm, unoriented, Raman Data Processed
Mineral: Fluorophlogopite
Rruff sample: R040075
Ideal chemistry: KMg_3_(Si_3_Al)O_10_F_2_
Locality: unknown
Source: University of Arizona Mineral Museum
Description: Green hexagonal tablet
Measured chemistry: (K_0.93_[box]_0.04_Na_0.03_)(Mg_0.66_Fe_0.30_Ti_0.02_)_3_(Si_0.75_Al_0.25_)_4_O_10_(F_0.90_(OH)_0.06_Cl_0.04_)
Raman shift (cm-1)	intensity
125.903	0
129.278	11.0197
132.653	15.806
136.028	30.0826
139.403	35.3317
142.778	46.4957
146.152	54.1603
149.527	38.1579
152.902	36.9401
156.277	32.8472
159.652	54.3714
163.026	73.4899
166.401	58.9723
169.776	85.9693
173.151	78.1259
176.526	85.8609
179.901	119.732
183.275	126.664
186.65	135.389
190.025	130.842
193.4	106.725
196.775	88.0696
200.149	36.0421
203.524	41.7212
206.899	12.5407
210.274	17.6624
213.649	14.5094
217.024	1.90268
220.398	4.11429
223.773	1.77963
227.148	8.32431
230.523	3.31335
233.898	0.383636
237.272	1.11267
240.647	12.2692
244.022	3.35373
247.397	3.80856
250.772	9.14896
254.147	11.0009
257.521	15.7107
260.896	20.6351
264.271	25.4262
267.646	30.2621
271.021	39.5594
274.395	26.7424
277.77	38.8326
281.145	40.8643
284.52	34.8043
287.895	34.1936
291.269	32.0416
294.644	27.4392
298.019	16.5646
301.394	13.5069
304.769	28.3063
308.144	11.2393
311.518	30.398
314.893	32.8202
318.268	12.7401
321.643	29.1078
325.018	4.23831
328.392	33.3021
331.767	15.4934
335.142	5.94559
338.517	9.28601
341.892	10.7207
345.267	7.56592
348.641	10.4719
352.016	13.4232
355.391	31.2578
358.766	10.8388
362.141	20.0567
365.515	12.2886
368.89	18.3636
372.265	12.2741
375.64	13.7259
379.015	9.70056
382.389	26.6338
385.764	27.8821
389.139	44.7387
392.514	39.829
395.889	48.5356
399.264	50.1134
402.638	54.2614
406.013	63.2309
409.388	49.3574
412.763	44.4419
416.138	46.9766
419.512	38.7519
422.887	38.006
426.262	32.9255
429.637	26.4031
433.012	21.0917
436.387	19.6661
439.761	13.8889
443.136	0.251556
446.511	13.6222
449.886	0.070496
453.261	1.16168
456.635	2.56311
460.01	7.3718
463.385	14.0659
466.76	5.3042
470.135	3.38715
473.51	22.505
476.884	13.8236
480.259	27.875
483.634	37.2915
487.009	31.4176
490.384	55.6497
493.758	72.6452
497.133	78.8851
500.508	88.0735
503.883	92.9504
507.258	84.0388
510.632	80.4035
514.007	85.5487
517.382	95.8062
520.757	72.7711
524.132	80.4941
527.506	88.182
530.881	85.7227
534.256	81.1458
537.631	77.7787
541.006	102.444
544.381	88.7734
547.755	90.8261
551.13	87.4077
554.505	90.2996
557.88	95.5115
561.255	66.3165
564.63	44.7168
568.004	43.215
571.379	38.4699
574.754	30.4605
578.129	31.2153
581.504	22.7399
584.878	24.6079
588.253	16.2992
591.628	19.158
595.003	12.7738
598.378	9.80545
601.753	7.68658
605.127	3.73541
608.502	16.6422
611.877	6.19437
615.252	6.06955
618.627	8.6857
622.001	4.98309
625.376	4.60211
628.751	1.85513
632.126	17.7588
635.501	10.9319
638.875	2.09415
642.25	7.27979
645.625	12.9677
649	6.40961
652.375	17.4988
655.75	20.4546
659.124	51.2434
662.499	73.5174
665.874	81.9541
669.249	105.815
672.624	134.124
675.998	164.073
679.373	164.702
682.748	143.185
686.123	112.457
689.498	85.2288
692.872	89.3266
696.247	83.6515
699.622	80.751
702.997	113.429
706.372	117.647
709.747	119.018
713.121	188.001
716.496	189.973
719.871	191.584
723.246	188.571
726.621	182.068
729.995	158.219
733.37	133.876
736.745	118.543
740.12	93.0037
743.495	73.7443
746.87	96.9188
750.244	69.973
753.619	104.89
756.994	115.838
760.369	100.63
763.744	110.986
767.118	131.736
770.493	120.977
773.868	130.434
777.243	112.971
780.618	88.8558
783.992	84.6206
787.367	60.4267
790.742	45.3114
794.117	42.3834
797.492	20.6452
800.867	11.621
804.241	6.29401
807.616	2.14777
810.991	9.44681
814.366	16.0034
817.741	2.96133
821.115	7.40717
824.49	8.25195
827.865	4.17248
831.24	11.2205
834.615	9.8241
837.99	3.19864
841.364	16.9361
844.739	3.78781
848.114	9.16128
851.489	13.5565
854.864	25.4617
858.239	22.4643
861.613	3.80121
864.988	19.4266
868.363	25.0262
871.738	21.1419
875.112	12.1071
878.487	10.7261
881.862	17.448
885.237	32.0077
888.612	27.1873
891.987	19.3514
895.361	27.5815
898.736	33.4333
902.111	20.2523
905.486	38.698
908.861	36.1148
912.236	31.9413
915.61	28.412
918.985	40.6489
922.36	33.9574
925.735	37.936
929.11	29.6163
932.484	26.3021
935.859	17.3116
939.234	8.95761
942.609	15.3498
945.984	26.8392
949.359	20.549
952.733	17.1086
956.108	21.6841
959.483	14.4566
962.858	14.0285
966.232	11.629
969.607	22.637
972.982	2.36844
976.357	10.5446
979.732	12.2033
983.107	6.43231
986.481	5.95261
989.856	8.92471
993.231	18.9841
996.606	6.69376
999.981	29.2327
1003.36	11.0001
1006.73	11.1505
1010.11	12.0906
1013.48	7.50092
1016.86	16.4932
1020.23	11.7601
1023.6	8.22253
1026.98	21.1943
1030.35	28.2614
1033.73	18.5846
1037.1	18.3506
1040.48	29.2492
1043.85	28.2809
1047.23	22.8592
1050.6	38.2733
1053.98	39.5828
1057.35	30.1842
1060.73	30.399
1064.1	47.2869
1067.48	36.4367
1070.85	46.5108
1074.23	51.2385
1077.6	50.4862
1080.98	28.099
1084.35	29.3601
1087.73	35.8246
1091.1	42.6761
1094.47	53.2606
1097.85	43.9553
1101.22	28.037
1104.6	28.5559
1107.97	23.4881
1111.35	17.6201
1114.72	20.5725
1118.1	21.9679
1121.47	8.41534
1124.85	7.76886
1128.22	3.70221
1131.6	5.12427
1134.97	20.4356
1138.35	10.79
1141.72	11.3018
1145.1	15.68
1148.47	13.5776
1151.85	8.71497
1155.22	3.6777
1158.6	15.8557
1161.97	14.3614
1165.35	15.8954
1168.72	20.3714
1172.1	8.13989
1175.47	13.2694
1178.85	12.8964
1182.22	12.6829
1185.6	14.2507
1188.97	5.97345
1192.35	1.55621
1195.72	7.9715
1199.1	1.63061
1202.47	4.85651
1205.84	25.3967
1209.22	9.12808
1212.59	20.9113
1215.97	2.06873
1219.34	3.68176
1222.72	24.3935
1226.09	21.2556
1229.47	8.54266
1232.84	11.9074
1236.22	2.19537
1239.59	25.0496
1242.97	18.9722
1246.34	8.93207
1249.72	16.4686
1253.09	14.6739
1256.47	26.3667
1259.84	13.9706
1263.22	15.7539
1266.59	6.64313
1269.97	12.3726
1273.34	18.137
1276.72	17.0939
1280.09	10.4118
1283.46	10.0125
1286.84	9.3576
1290.21	6.97189
