Measurement: Raman, 780 nm, unoriented, Raman Data Processed
Mineral: Fluorcalciopyrochlore
Rruff sample: R110198
Ideal chemistry: (Ca,Na)_2_(Nb^5+^,Ti^4+^)_2_O_6_F
Locality: St Lawrence Columbium mine, Oka complex, Oka, Quebec, Canada
Source: Donald Doell
Description: Dark brownish-red octahedra
Measured chemistry: (Ca_1.17_Na_0.49_Ce_0.19_Mn_0.03_La_0.03_Pr_0.01_Th_0.01_)(Nb_1.55_Ti_0.31_Fe_0.09_Zr_0.04_Ta_0.01_)O_6_[F_0.63_(OH)_0.37_]
Raman shift (cm-1)	intensity
232.382	1829
235.274	1842.92
238.167	1871.99
241.06	1876.74
243.952	1905.35
246.845	1929.94
249.738	1954.68
252.631	1976.17
255.523	1994.6
258.416	2016.59
261.309	2053.29
264.201	2072.9
267.094	2099.92
269.987	2123.59
272.879	2144.81
275.772	2163.69
278.665	2190.17
281.558	2213.33
284.45	2231.56
287.343	2237.83
290.236	2262.76
293.128	2267.97
296.021	2280.74
298.914	2298.11
301.806	2307.5
304.699	2319.08
307.592	2331.72
310.485	2341.56
313.377	2347.71
316.27	2359.24
319.163	2372.95
322.055	2375.2
324.948	2395.31
327.841	2406.65
330.733	2411.13
333.626	2421.76
336.519	2445.94
339.411	2447.52
342.304	2472.05
345.197	2486.94
348.09	2503.99
350.982	2524.65
353.875	2534.61
356.768	2566.61
359.66	2584.57
362.553	2600.43
365.446	2625.86
368.339	2651.08
371.231	2678.55
374.124	2690.2
377.017	2719.41
379.909	2743.43
382.802	2761.97
385.695	2797.66
388.587	2820.99
391.48	2848.75
394.373	2875.79
397.265	2899.9
400.158	2928.81
403.051	2956.47
405.944	2987.57
408.836	3005.93
411.729	3038.97
414.622	3061.43
417.514	3086.6
420.407	3112.13
423.3	3145.76
426.192	3162.43
429.085	3178.9
431.978	3205.16
434.871	3221.88
437.763	3242.73
440.656	3258.81
443.549	3278.94
446.441	3284.16
449.334	3291.02
452.227	3296.21
455.12	3293.51
458.012	3307.66
460.905	3301.98
463.798	3292.2
466.69	3280.21
469.583	3273.07
472.476	3259.69
475.368	3249.21
478.261	3228.83
481.154	3217.94
484.046	3197.33
486.939	3177.84
489.832	3168.08
492.725	3143.91
495.617	3120.35
498.51	3095.13
501.403	3074.14
504.295	3058.27
507.188	3035.71
510.081	3010.72
512.973	2989.27
515.866	2974.67
518.759	2951.71
521.652	2934.06
524.544	2908.64
527.437	2898.86
530.33	2865.49
533.222	2850.69
536.115	2828.39
539.008	2803.46
541.9	2787.91
544.793	2765.36
547.686	2753.75
550.579	2730.19
553.471	2720.2
556.364	2701.72
559.257	2686.03
562.149	2662.99
565.042	2644.51
567.935	2641.3
570.827	2616.36
573.72	2605.26
576.613	2591.43
579.506	2582.62
582.398	2573.92
585.291	2557.13
588.184	2546.65
591.076	2528.15
593.969	2522.07
596.862	2506.83
599.755	2487.06
602.647	2471.94
605.54	2463.43
608.433	2441.5
611.325	2427.35
614.218	2406.52
617.111	2392.4
620.003	2367.91
622.896	2349.89
625.789	2328.01
628.682	2307.39
631.574	2284.69
634.467	2266.96
637.36	2233.43
640.252	2221.7
643.145	2192.38
646.038	2173.7
648.93	2150.39
651.823	2123.54
654.716	2094.96
657.609	2075.87
660.501	2050.26
663.394	2034.55
666.287	2005.37
669.179	1985.13
672.072	1957.27
674.965	1940.03
677.857	1920.71
680.75	1898.06
683.643	1872.8
686.535	1857.93
689.428	1834.33
692.321	1809.88
695.214	1794.24
698.106	1775.52
700.999	1757.1
703.892	1747.47
706.784	1735.45
709.677	1720.5
712.57	1703.51
715.462	1699.32
718.355	1684.16
721.248	1676.26
724.141	1671.06
727.033	1672.09
729.926	1649.53
732.819	1644.16
735.711	1640.69
738.604	1629.76
741.497	1619.98
744.389	1614.16
747.282	1613.82
750.175	1612.39
753.068	1607.25
755.96	1604.85
758.853	1605.77
761.746	1600.03
764.638	1595.56
767.531	1602.98
770.424	1599.63
773.317	1598.34
776.209	1601.43
779.102	1599.2
781.995	1601.93
784.887	1594.43
787.78	1593.26
790.673	1594.07
793.565	1595.26
796.458	1585.21
799.351	1582.47
802.244	1567.03
805.136	1564.68
808.029	1555.43
810.922	1545.95
813.814	1527.03
816.707	1521.23
819.6	1508.66
822.492	1484.31
825.385	1468.2
828.278	1450.92
831.17	1429.71
834.063	1412.21
836.956	1392.77
839.849	1367.23
842.741	1342.87
845.634	1318.41
848.527	1293.51
851.419	1271.34
854.312	1248.19
857.205	1220.58
860.097	1201.77
862.99	1169.31
865.883	1145.22
868.776	1117.73
871.668	1092.53
874.561	1068.01
877.454	1041.67
880.346	1013.67
883.239	986.699
886.132	966.577
889.024	935.914
891.917	914.621
894.81	895.863
897.703	870.694
900.595	854.061
903.488	831.289
906.381	818.987
909.273	809.255
912.166	792.423
915.059	773.644
917.952	762.412
920.844	752.717
923.737	737.952
926.63	730.884
929.522	723.715
932.415	718.303
935.308	710.8
938.2	700.536
941.093	698.774
943.986	686.855
946.879	685.373
949.771	680.447
952.664	674.078
955.557	672.704
958.449	668.166
961.342	661.743
964.235	657.124
967.127	656.962
970.02	651.48
972.913	649.274
975.806	644.958
978.698	641.993
981.591	643.125
984.484	638.356
987.376	637.139
990.269	637.434
993.162	637.947
996.054	634.281
998.947	634.564
1001.84	632.63
1004.73	631.479
1007.62	636.147
1010.52	636.591
1013.41	635.607
1016.3	635.672
1019.2	644.815
1022.09	640.144
1024.98	642.309
1027.87	644.148
1030.77	651.308
1033.66	654.787
1036.55	658.387
1039.44	658.379
1042.34	663.939
1045.23	667.729
1048.12	673.95
1051.02	677.465
1053.91	685.924
1056.8	691.97
1059.69	698.732
1062.59	704.038
1065.48	711.026
1068.37	719.833
1071.27	724.097
1074.16	738.956
1077.05	742.118
1079.94	753.658
1082.84	765.228
1085.73	777.875
1088.62	787.971
1091.51	798.97
1094.41	819.108
1097.3	824.673
1100.19	837.037
1103.08	852.991
1105.98	867.322
1108.87	893.176
1111.76	906.979
1114.65	925.552
1117.55	949.622
1120.44	969.208
1123.33	995.858
1126.23	1022.79
1129.12	1048.04
1132.01	1073.71
1134.9	1107.8
1137.8	1135.36
1140.69	1173.09
1143.58	1203.01
1146.47	1234.14
1149.37	1276.06
1152.26	1315.71
1155.15	1357.99
1158.05	1397.98
1160.94	1446.34
1163.83	1497.46
1166.72	1544.97
1169.62	1600.88
1172.51	1658.5
1175.4	1716.46
1178.3	1775.56
1181.19	1841.82
1184.08	1910.68
1186.97	1984.19
1189.87	2060.22
1192.76	2141.32
1195.65	2227.15
1198.54	2315.7
1201.44	2404.59
1204.33	2499.07
1207.22	2596.92
1210.11	2693.6
1213.01	2807.57
1215.9	2921.26
1218.79	3034.44
1221.68	3141.36
1224.58	3259.02
1227.47	3392.62
1230.36	3505.79
1233.26	3637.89
1236.15	3758.72
1239.04	3892.45
1241.93	4013.91
1244.83	4156.45
1247.72	4297.08
1250.61	4420.52
1253.51	4547.59
1256.4	4700.42
1259.29	4823.7
1262.18	4961.48
1265.08	5103.65
1267.97	5231.58
1270.86	5354.48
1273.75	5474.62
1276.65	5581.67
1279.54	5704.72
1282.43	5826.13
1285.32	5939.82
