Measurement: Raman, 785 nm, unoriented, Raman Data Processed
Mineral: Fluorophlogopite
Rruff sample: R040075
Ideal chemistry: KMg_3_(Si_3_Al)O_10_F_2_
Locality: unknown
Source: University of Arizona Mineral Museum
Description: Green hexagonal tablet
Measured chemistry: (K_0.93_[box]_0.04_Na_0.03_)(Mg_0.66_Fe_0.30_Ti_0.02_)_3_(Si_0.75_Al_0.25_)_4_O_10_(F_0.90_(OH)_0.06_Cl_0.04_)
Raman shift (cm-1)	intensity
150.556	0
153.449	48.1018
156.342	18.9033
159.234	67.313
162.127	75.9142
165.02	28.0502
167.913	53.8219
170.805	37.3071
173.698	71.85
176.591	86.2705
179.483	54.0935
182.376	85.7811
185.269	98.8326
188.161	114.07
191.054	71.1992
193.947	50.6517
196.84	48.4175
199.732	33.0253
202.625	7.25519
205.518	0.913208
208.41	4.55005
211.303	9.06982
214.196	1.6391
217.089	1.37683
219.981	19.5251
222.874	10.0361
225.767	22.7714
228.659	9.36652
231.552	34.0842
234.445	29.1753
237.337	47.2048
240.23	38.7216
243.123	41.2986
246.016	56.0406
248.908	51.8171
251.801	57.2332
254.694	69.0125
257.586	83.5882
260.479	77.4244
263.372	87.6881
266.264	85.93
269.157	76.1992
272.05	82.1647
274.942	91.8424
277.835	83.5378
280.728	38.696
283.621	48.1481
286.513	19.6913
289.406	33.3923
292.299	38.7068
295.191	15.116
298.084	18.6332
300.977	11.1874
303.87	8.09442
306.762	27.5159
309.655	6.20264
312.548	25.092
315.44	26.1591
318.333	5.84766
321.226	7.56628
324.118	7.40277
327.011	5.93848
329.904	22.2109
332.796	3.50623
335.689	8.23498
338.582	22.7363
341.474	6.52411
344.367	22.0737
347.26	1.56091
350.153	32.4853
353.045	27.8334
355.938	22.8375
358.831	30.504
361.723	17.8232
364.616	34.5898
367.509	12.2158
370.402	21.6245
373.294	9.18573
376.187	23.8573
379.08	15.1689
381.972	21.5328
384.865	32.457
387.758	9.50513
390.651	42.6535
393.543	27.6146
396.436	34.7739
399.329	59.9799
402.221	37.9072
405.114	55.5397
408.007	34.6544
410.899	50.528
413.792	50.0875
416.685	50.3997
419.577	42.1044
422.47	40.2684
425.363	20.1332
428.256	27.8954
431.148	32.8674
434.041	26.0029
436.934	31.8568
439.826	15.3325
442.719	7.7157
445.612	16.6971
448.505	4.66657
451.397	10.1072
454.29	6.94189
457.183	2.89465
460.075	6.97577
462.968	9.69244
465.861	11.222
468.753	29.4565
471.646	36.4032
474.539	40.0604
477.432	54.7446
480.324	77.8223
483.217	57.2235
486.11	81.7061
489.002	105.933
491.895	91.6902
494.788	120.316
497.68	159.448
500.573	145.938
503.466	168.596
506.358	169.253
509.251	178.386
512.144	209.241
515.037	216.749
517.929	203.993
520.822	212.404
523.715	215.653
526.607	209.489
529.5	189.44
532.393	177.064
535.285	162.063
538.178	175.771
541.071	196.011
543.964	191.853
546.856	173.308
549.749	141.806
552.642	135.929
555.534	109.156
558.427	110.22
561.32	80.6407
564.212	64.5574
567.105	17.1984
569.998	37.3782
572.891	40.5063
575.783	37.0355
578.676	15.9554
581.569	25.6887
584.461	21.9601
587.354	16.7674
590.247	3.45087
593.139	6.39984
596.032	20.4238
598.925	10.7969
601.817	14.4548
604.71	1.89819
607.603	0.668762
610.496	3.85028
613.388	10.1286
616.281	3.63538
619.174	20.4763
622.066	17.76
624.959	14.8865
627.852	30.0928
630.745	47.8944
633.637	5.43347
636.53	30.7128
639.423	20.1672
642.315	16.1596
645.208	11.8584
648.101	26.8539
650.993	33.9605
653.886	16.6289
656.779	31.6051
659.672	35.4814
662.564	55.744
665.457	40.807
668.35	40.8096
671.242	92.3626
674.135	89.8712
677.028	100.596
679.92	124.702
682.813	87.3232
685.706	69.6723
688.598	45.4193
691.491	20.2149
694.384	16.9039
697.277	0.492615
700.169	0.913574
703.062	7.94177
705.955	18.4264
708.847	5.75263
711.74	14.5442
714.633	10.295
717.525	8.96472
720.418	24.9207
723.311	41.7914
726.204	35.3582
729.096	49.2235
731.989	19.8205
734.882	29.2515
737.774	29.7056
740.667	20.9494
743.56	35.2296
746.452	55.1871
749.345	46.999
752.238	46.8835
755.131	41.3226
758.023	47.5105
760.916	46.2894
763.809	36.9484
766.701	35.2026
769.594	52.3505
772.487	43.8953
775.38	54.0134
778.272	60.2978
781.165	51.0745
784.058	47.8782
786.95	17.8472
789.843	21.8875
792.736	24.0447
795.628	18.4344
798.521	9.62869
801.414	20.9757
804.307	10.3011
807.199	1.7442
810.092	30.7483
812.985	23.1393
815.877	4.78592
818.77	21.9102
821.663	7.2489
824.555	6.92914
827.448	1.48187
830.341	1.45856
833.234	12.8934
836.126	8.48669
839.019	14.8186
841.912	24.2341
844.804	18.8808
847.697	12.0248
850.59	10.6758
853.482	16.6269
856.375	7.40067
859.268	19.0737
862.16	22.4314
865.053	13.0207
867.946	29.1774
870.839	4.13821
873.731	9.66721
876.624	12.6143
879.517	22.2828
882.409	23.0247
885.302	30.321
888.195	22.7416
891.087	25.6241
893.98	29.5966
896.873	28.7413
899.766	34.6935
902.658	28.0798
905.551	18.4649
908.444	20.2125
911.336	15.0615
914.229	8.07935
917.122	9.38855
920.014	30.9471
922.907	17.184
925.8	19.3227
928.693	23.4167
931.585	17.65
934.478	13.4763
937.371	21.6316
940.263	18.8612
943.156	18.8911
946.049	24.6176
948.942	21.0796
951.834	12.5227
954.727	25.7604
957.62	3.41769
960.512	7.30765
963.405	23.8472
966.298	19.4398
969.19	11.2252
972.083	4.01858
974.976	18.2813
977.869	18.0196
980.761	13.1255
983.654	30.1182
986.547	28.1281
989.439	7.65329
992.332	9.9154
995.225	6.07013
998.117	9.68365
1001.01	3.92282
1003.9	4.37027
1006.79	4.35315
1009.69	7.11563
1012.58	24.3867
1015.47	5.91251
1018.37	14.67
1021.26	23.0778
1024.15	15.107
1027.04	8.78104
1029.94	11.6306
1032.83	23.368
1035.72	35.3458
1038.62	39.8325
1041.51	22.6391
1044.4	33.7491
1047.29	28.411
1050.19	16.779
1053.08	18.8236
1055.97	31.7721
1058.86	34.9982
1061.76	8.9147
1064.65	17.3728
1067.54	29.8749
1070.43	34.0687
1073.33	21.4413
1076.22	35.1112
1079.11	19.1369
1082.01	34.1594
1084.9	37.2801
1087.79	27.7572
1090.68	18.5524
1093.58	9.18167
1096.47	34.0764
1099.36	36.3118
1102.26	31.1781
1105.15	11.7996
1108.04	13.7879
1110.93	24.837
1113.83	9.45654
1116.72	6.00873
1119.61	16.0866
1122.5	8.36731
1125.4	12.0984
1128.29	17.8906
1131.18	5.03613
1134.07	13.841
1136.97	13.2239
1139.86	16.0211
1142.75	5.53204
1145.64	22.0928
1148.54	24.0774
1151.43	16.0698
1154.32	30.0121
1157.22	16.2469
1160.11	5.60559
1163	16.7668
1165.89	25.5733
1168.79	13.7369
1171.68	11.816
1174.57	13.7062
1177.46	19.4837
1180.36	35.8367
1183.25	24.1937
1186.14	29.2985
1189.04	33.5874
1191.93	27.6613
1194.82	34.1668
1197.71	24.8279
1200.61	33.1657
1203.5	2.42224
1206.39	12.2228
1209.28	33.1654
1212.18	28.5365
1215.07	24.1757
1217.96	29.2936
1220.86	28.792
1223.75	28.3208
1226.64	35.4423
1229.53	29.3846
1232.43	17.9387
1235.32	10.5196
1238.21	2.21848
1241.1	38.8866
1244	38.5074
1246.89	43.3048
1249.78	39.679
1252.67	28.9121
1255.57	34.3237
1258.46	34.8204
1261.35	5.22485
