Measurement: Raman, 780 nm, unoriented, Raman Data Processed
Mineral: Franckeite
Rruff sample: R140342
Ideal chemistry: Pb^2+^_21.7_Sn^4+^_9.3_(Fe^2+^,Fe^3+^)_4.0_Sb^3+^_8.1_S^2-^_56.9_
Locality: Pacific Limestone Products Quarry, near Santa Cruz, Santa Cruz County, California, USA
Source: James Shigley
Description: Black anhedral crystals
Raman shift (cm-1)	intensity
93.4884	0
96.8632	3.02917
100.238	3.06928
103.613	0.045929
106.988	7.22189
110.362	5.83273
113.737	2.79959
117.112	3.01099
120.487	3.69174
123.862	6.584
127.237	4.77937
130.611	5.1058
133.986	3.39976
137.361	3.62235
140.736	2.03378
144.111	0.691132
147.485	0.351883
150.86	1.15814
154.235	3.1562
157.61	3.43091
160.985	4.33077
164.359	5.4243
167.734	2.88072
171.109	4.00673
174.484	5.8777
177.859	5.77753
181.234	6.88162
184.608	8.55336
187.983	10.5123
191.358	10.0256
194.733	7.482
198.108	9.24029
201.482	8.9576
204.857	9.96574
208.232	10.5548
211.607	13.142
214.982	9.87395
218.357	11.2399
221.731	10.2151
225.106	11.0136
228.481	11.2379
231.856	10.1982
235.231	10.3226
238.605	9.45343
241.98	8.32291
245.355	9.13293
248.73	9.3445
252.105	6.42984
255.48	4.85692
258.854	6.26219
262.229	2.60237
265.604	4.31358
268.979	2.42194
272.354	3.54071
275.728	1.36456
279.103	0.411179
282.478	1.36154
285.853	1.10467
289.228	0.28376
292.602	1.18336
295.977	0.496468
299.352	1.08937
302.727	1.416
306.102	0.836868
309.476	3.28748
312.851	4.09392
316.226	5.56523
319.601	5.12332
322.976	4.06097
326.351	4.51514
329.725	4.01473
333.1	4.1967
336.475	3.58756
339.85	1.85272
343.225	2.46399
346.599	3.10406
349.974	2.32652
353.349	0.652519
356.724	0.049561
360.099	0.218124
363.474	0.110237
366.848	2.9436
370.223	2.378
373.598	0.586922
376.973	0.65683
380.348	0.273506
383.722	1.68554
387.097	1.337
390.472	1.17413
393.847	0.43943
397.222	1.26063
400.596	1.54936
403.971	1.50717
407.346	1.9631
410.721	2.73184
414.096	1.12044
417.471	2.86096
420.845	1.83854
424.22	1.76026
427.595	2.76943
430.97	3.66193
434.345	0.967979
437.719	1.30461
441.094	0.848618
444.469	1.35462
447.844	1.518
451.219	1.57207
454.594	4.11967
457.968	3.01742
461.343	2.61803
464.718	1.77489
468.093	1.973
471.468	2.5473
474.842	2.59045
478.217	1.16772
481.592	1.86922
484.967	0.51416
488.342	2.73129
491.716	0.648621
495.091	2.63489
498.466	2.41633
501.841	0.540787
505.216	0.181267
508.591	0.573433
511.965	1.00508
515.34	1.74059
518.715	0.998367
522.09	1.04941
525.465	1.38283
528.84	0.686852
532.214	1.12528
535.589	0.653587
538.964	0.059303
542.339	0.362526
545.713	1.47699
549.088	0.467468
552.463	0.465996
555.838	0.989128
559.213	2.04025
562.588	2.04996
565.962	0.544952
569.337	1.5446
572.712	0.322273
576.087	1.79194
579.462	1.15835
582.837	1.7048
586.211	1.70971
589.586	1.32654
592.961	0.36483
596.336	2.03228
599.711	1.36505
603.085	1.44523
606.46	1.58166
609.835	0.628716
613.21	1.58144
616.585	2.23099
619.96	0.838722
623.334	0.809296
626.709	0.198471
630.084	1.24353
633.459	1.85614
636.833	0.081177
640.208	1.90492
643.583	0.875053
646.958	2.88576
650.333	3.06085
653.708	1.00233
657.082	1.40268
660.457	0.039299
663.832	1.44675
667.207	1.62972
670.582	0.235947
673.957	1.43119
677.331	1.05797
680.706	2.21169
684.081	1.32999
687.456	2.26965
690.831	1.02464
694.205	1.95232
697.58	1.38776
700.955	0.420738
704.33	0.654053
707.705	0.510567
711.079	1.69371
714.454	2.42425
717.829	1.06251
721.204	1.12278
724.579	0.373756
727.953	0.517704
731.328	2.34325
734.703	1.18811
738.078	1.97582
741.453	1.9442
744.828	0.247952
748.202	1.14645
751.577	0.764454
754.952	1.85621
758.327	1.9555
761.702	1.22235
765.077	0.503601
768.451	0.063091
771.826	0.684258
775.201	0.402103
778.576	0.033863
781.951	0.64233
785.325	1.60071
788.7	1.29645
792.075	0.69323
795.45	0.729454
798.825	2.93107
802.199	2.92042
805.574	0.687317
808.949	0.597202
812.324	0.123611
815.699	0.673981
819.073	1.98044
822.448	1.52735
825.823	2.13826
829.198	1.83825
832.573	2.90388
835.948	3.45323
839.322	3.26524
842.697	3.04173
846.072	3.37957
849.447	2.94155
852.822	2.92109
856.197	3.43765
859.571	3.04288
862.946	3.95847
866.321	2.48307
869.696	2.19949
873.071	2.17111
876.445	1.27455
879.82	2.06142
883.195	2.64939
886.57	3.07121
889.945	1.2988
893.319	1.50766
896.694	1.20325
900.069	1.88145
903.444	0.299625
906.819	0.146347
910.193	1.88675
913.568	0.517994
916.943	0.701687
920.318	0.602394
923.693	0.612885
927.068	0.416096
930.442	1.21171
933.817	0.036133
937.192	1.53911
940.567	0.011753
943.942	0.951962
947.317	0.3703
950.691	2.67379
954.066	0.586781
957.441	1.63051
960.816	1.56291
964.191	1.04502
967.565	1.18508
970.94	1.75538
974.315	0.186554
977.69	0.397198
981.065	0.916161
984.439	0.74369
987.814	0.711872
991.189	1.37997
994.564	1.05209
997.939	2.02926
1001.31	2.0581
1004.69	1.93675
1008.06	1.40693
1011.44	0.970097
1014.81	0.672577
1018.19	0.778248
1021.56	0.340595
1024.94	1.25784
1028.31	0.177433
1031.69	1.76602
1035.06	1.34808
1038.44	1.41584
1041.81	1.70892
1045.19	2.73851
1048.56	1.74814
1051.94	1.20536
1055.31	2.01817
1058.68	3.33418
1062.06	3.02511
1065.43	0.831474
1068.81	1.47268
1072.18	2.85502
1075.56	1.13114
1078.93	0.486237
1082.31	0.80864
1085.68	0.161636
1089.06	1.06569
1092.43	0.719994
1095.81	1.54715
1099.18	0.328251
1102.56	0.091991
1105.93	2.13729
1109.31	0.165386
1112.68	0.10582
1116.06	1.00726
1119.43	2.53014
1122.81	1.67512
1126.18	2.70328
1129.56	0.786041
1132.93	0.701874
1136.31	0.495205
1139.68	2.22916
1143.06	2.17939
1146.43	0.901936
1149.81	2.15499
1153.18	1.91932
1156.56	0.929279
1159.93	0.236946
1163.31	0.044178
1166.68	1.93821
1170.05	1.74347
1173.43	1.4543
1176.8	1.31811
1180.18	1.55412
1183.55	1.47557
1186.93	0.293671
1190.3	1.46617
1193.68	2.9363
1197.05	1.51793
1200.43	1.5906
1203.8	1.22403
1207.18	1.89408
1210.55	0.886478
1213.93	2.41051
1217.3	1.44381
1220.68	3.07484
1224.05	0.155685
1227.43	2.19893
1230.8	2.13599
1234.18	0.160767
1237.55	0.175308
1240.92	0.984245
1244.3	1.6065
1247.67	0.206047
1251.05	0.643829
1254.42	0.96032
1257.8	1.13746
1261.17	1.2554
1264.55	1.21938
1267.92	1.17097
1271.3	1.52779
1274.67	0.163559
1278.05	0.77858
1281.42	1.18053
1284.8	0
