Measurement: Raman, 532 nm, unoriented, Raman Data RAW
Mineral: Franckeite
Rruff sample: R060946
Ideal chemistry: Pb^2+^_21.7_Sn^4+^_9.3_(Fe^2+^,Fe^3+^)_4.0_Sb^3+^_8.1_S^2-^_56.9_
Locality: Hoei tin mine, Kyushu Island, Japan
Source: Lloyd Twaites
Description: Black tabular metallic
Raman shift (cm-1)	intensity
101.756	17.2491
105.131	17.5933
108.506	18.4974
111.881	26.5893
115.255	44.4425
118.63	53.8475
122.005	81.2145
125.38	108.737
128.755	116.384
132.13	118.763
135.504	124.358
138.879	132.791
142.254	138.136
145.629	141.94
149.004	144.256
152.379	143.744
155.753	147.22
159.128	143.504
162.503	146.879
165.878	147.954
169.252	151.13
172.627	153.593
176.002	150.978
179.377	160.024
182.752	153.147
186.127	169.811
189.501	160.661
192.876	156.882
196.251	155.568
199.626	162.24
203.001	163.158
206.375	159.416
209.75	165.13
213.125	152.329
216.5	156.994
219.875	158.044
223.25	166.21
226.624	158.382
229.999	167.821
233.374	162.368
236.749	167.701
240.124	166.167
243.498	185.868
246.873	189.32
250.248	186.242
253.623	194.075
256.998	188.842
260.373	178.659
263.747	163.099
267.122	147.685
270.497	131.369
273.872	118.481
277.247	112.981
280.621	97.1436
283.996	93.9599
287.371	79.0108
290.746	74.8282
294.121	80.0043
297.495	82.4399
300.87	79.0891
304.245	88.3856
307.62	77.1769
310.995	92.9041
314.37	92.0451
317.744	79.0626
321.119	84.5395
324.494	73.3673
327.869	67.8031
331.244	62.029
334.618	65.5478
337.993	64.1367
341.368	54.7464
344.743	52.0968
348.118	53.8665
351.493	49.5697
354.867	40.1734
358.242	45.7446
361.617	44.752
364.992	44.1891
368.366	47.5914
371.741	42.8227
375.116	45.9674
378.491	35.3496
381.866	41.9519
385.241	44.0505
388.615	35.0068
391.99	42.8094
395.365	38.3483
398.74	36.2921
402.115	34.5131
405.49	37.835
408.864	35.5999
412.239	36.7418
415.614	38.9335
418.989	37.1759
422.364	35.8606
425.738	39.1612
429.113	31.2648
432.488	39.788
435.863	34.3036
439.238	38.1171
442.612	28.4207
445.987	36.6811
449.362	34.1874
452.737	33.445
456.112	31.6464
459.486	37.9313
462.861	41.1961
466.236	34.9596
469.611	34.059
472.986	34.3828
476.361	34.8657
479.735	36.1166
483.11	31.9728
486.485	40.004
489.86	33.517
493.235	30.33
496.61	28.5165
499.984	31.0893
503.359	34.8991
506.734	30.6107
510.109	30.7653
513.484	30.5221
516.858	33.2994
520.233	29.8082
523.608	35.0408
526.983	32.7656
530.358	31.5384
533.732	34.3161
537.107	29.0569
540.482	29.3533
543.857	27.1988
547.232	35.0354
550.606	26.2304
553.981	31.4014
557.356	25.2547
560.731	28.0281
564.106	25.22
567.481	26.3215
570.855	25.5917
574.23	27.0084
577.605	24.8962
580.98	23.6436
584.355	26.2687
587.729	23.6435
591.104	27.4173
594.479	26.4243
597.854	23.2301
601.229	21.5406
604.604	28.66
607.978	26.5053
611.353	27.9891
614.728	28.5403
618.103	25.9279
621.477	20.2303
624.852	22.877
628.227	22.7878
631.602	23.1441
634.977	22.6787
638.352	23.8794
641.726	23.8396
645.101	27.9168
648.476	28.4687
651.851	19.624
655.226	23.0002
658.601	22.5961
661.975	24.9297
665.35	26.6915
668.725	22.9391
672.1	28.181
675.475	23.1468
678.849	20.7189
682.224	21.9713
685.599	25.3628
688.974	18.5426
692.349	18.1432
695.723	23.733
699.098	14.4101
702.473	24.5023
705.848	21.1775
709.223	22.0717
712.597	20.747
715.972	20.2908
719.347	18.8843
722.722	17.1808
726.097	20.5246
729.472	18.5041
732.846	23.7412
736.221	22.3405
739.596	20.7841
742.971	16.3169
746.346	20.7717
749.721	22.2728
753.095	15.2251
756.47	22.9562
759.845	22.6701
763.22	19.8297
766.595	20.9336
769.969	22.2667
773.344	23.1577
776.719	23.7146
780.094	23.0205
783.469	24.9362
786.843	19.2618
790.218	17.5825
793.593	18.8218
796.968	17.1294
800.343	19.9
803.717	19.2556
807.092	18.4162
810.467	18.7313
813.842	19.3588
817.217	20.1594
820.592	20.5477
823.966	20.7076
827.341	16.8915
830.716	18.6783
834.091	22.1143
837.466	15.4129
840.841	18.2273
844.215	17.3925
847.59	14.9786
850.965	17.4661
854.34	17.4624
857.715	18.8216
861.089	16.0301
864.464	18.0256
867.839	16.2272
871.214	18.7697
874.589	15.1829
877.963	18.3098
881.338	19.5609
884.713	19.1129
888.088	16.2999
891.463	23.6971
894.837	18.1445
898.212	11.5597
901.587	12.6934
904.962	16.5926
908.337	18.3065
911.712	18.8762
915.086	21.5947
918.461	14.4106
921.836	16.3289
925.211	18.4088
928.586	17.3408
931.96	20.3887
935.335	16.6347
938.71	17.7177
942.085	16.2886
945.46	21.4973
948.835	16.9063
952.209	20.8997
955.584	23.0413
958.959	20.2309
962.334	18.5949
965.709	20.5023
969.083	23.3096
972.458	20.8874
975.833	18.011
979.208	15.8932
982.583	15.2159
985.957	15.0948
989.332	19.0476
992.707	20.5288
996.082	18.3378
999.457	18.7862
1002.83	18.926
1006.21	14.9785
1009.58	18.4909
1012.96	16.0288
1016.33	18.9544
1019.71	15.2538
1023.08	17.5493
1026.45	18.9105
1029.83	18.7535
1033.2	18.933
1036.58	18.3364
1039.95	19.6011
1043.33	22.4884
1046.7	22.9995
1050.08	15.0601
1053.45	16.9152
1056.83	17.6633
1060.2	19.9967
1063.58	21.032
1066.95	21.6167
1070.33	19.3253
1073.7	20.2759
1077.08	13.6517
1080.45	17.5401
1083.83	18.9781
1087.2	20.4631
1090.58	14.9422
1093.95	18.9969
1097.33	17.8633
1100.7	14.2179
1104.08	24.558
1107.45	16.0003
1110.83	21.9172
1114.2	14.1613
1117.58	11.5727
1120.95	17.775
1124.33	12.4189
1127.7	16.8057
1131.07	19.83
1134.45	15.4256
1137.82	17.3557
1141.2	16.3676
1144.57	10.9934
1147.95	17.474
1151.32	19.8556
1154.7	15.438
1158.07	14.0122
1161.45	14.4734
1164.82	17.8667
1168.2	21.3117
1171.57	15.9267
1174.95	17.1863
1178.32	17.8545
1181.7	11.8026
1185.07	17.7631
1188.45	16.705
1191.82	17.2741
1195.2	17.7762
1198.57	12.5812
1201.94	14.212
1205.32	20.1694
1208.69	11.7434
1212.07	17.1412
1215.44	13.8464
1218.82	16.1761
1222.19	15.5677
1225.57	13.6496
1228.94	15.5507
1232.32	13.5246
1235.69	15.2935
1239.07	20.6859
1242.44	12.5132
1245.82	17.1666
1249.19	8.97527
1252.57	15.169
1255.94	16.008
1259.32	17.7027
1262.69	19.1716
1266.07	15.1745
1269.44	12.577
1272.82	22.2677
1276.19	18.8504
1279.57	16.9649
1282.94	17.3263
1286.32	16.7254
1289.69	11.8546
1293.07	17.4618
