Measurement: Raman, 532 nm, unoriented, Raman Data Processed
Mineral: Franckeite
Rruff sample: R140342
Ideal chemistry: Pb^2+^_21.7_Sn^4+^_9.3_(Fe^2+^,Fe^3+^)_4.0_Sb^3+^_8.1_S^2-^_56.9_
Locality: Pacific Limestone Products Quarry, near Santa Cruz, Santa Cruz County, California, USA
Source: James Shigley
Description: Black anhedral crystals
Raman shift (cm-1)	intensity
104.247	0
107.621	4.82703
110.996	26.1659
114.371	28.776
117.746	44.355
121.121	46.7565
124.496	47.833
127.87	42.5231
131.245	41.4199
134.62	33.5242
137.995	27.6945
141.37	30.7868
144.744	20.9902
148.119	17.5017
151.494	13.8203
154.869	13.9692
158.244	11.3862
161.619	8.0871
164.993	10.4966
168.368	4.91153
171.743	5.2067
175.118	4.48267
178.493	2.00149
181.868	2.21063
185.242	1.98569
188.617	3.28687
191.992	1.07971
195.367	2.11981
198.742	2.56747
202.116	1.02393
205.491	1.75827
208.866	0.529449
212.241	1.50336
215.616	1.7012
218.99	0.119995
222.365	0.174622
225.74	0.354218
229.115	0.475616
232.49	0.366669
235.865	0.534637
239.239	1.10324
242.614	1.31528
245.989	1.50375
249.364	1.82169
252.739	6.62265
256.113	1.85089
259.488	3.1926
262.863	1.3082
266.238	3.7139
269.613	4.2063
272.988	4.19284
276.362	3.67679
279.737	2.89062
283.112	2.42151
286.487	2.29394
289.862	1.6218
293.236	0.351349
296.611	0.807281
299.986	2.38806
303.361	6.78686
306.736	3.98422
310.111	2.81482
313.485	3.97098
316.86	4.23877
320.235	4.38721
323.61	5.35925
326.985	5.93829
330.359	6.06235
333.734	4.70438
337.109	6.70099
340.484	5.82877
343.859	7.24832
347.233	5.22827
350.608	3.22284
353.983	4.15884
357.358	4.18426
360.733	2.82034
364.108	4.21988
367.482	2.45233
370.857	1.99287
374.232	1.70196
377.607	0.375153
380.982	0.043411
384.356	0.994064
387.731	0.228241
391.106	0.259827
394.481	1.67053
397.856	0.949982
401.231	1.71416
404.605	1.32863
407.98	0.304855
411.355	2.26848
414.73	3.1452
418.105	4.77345
421.479	5.92137
424.854	6.26399
428.229	4.22398
431.604	5.87791
434.979	4.67
438.354	5.11186
441.728	6.36501
445.103	5.25902
448.478	6.38713
451.853	6.36017
455.228	5.75095
458.603	5.24622
461.977	7.07703
465.352	7.04047
468.727	7.07199
472.102	6.23404
475.477	6.40176
478.851	6.01849
482.226	6.73956
485.601	9.12112
488.976	7.43265
492.351	5.90857
495.726	6.66205
499.1	6.79913
502.475	7.03796
505.85	4.99081
509.225	5.20303
512.6	5.3671
515.974	6.00085
519.349	3.94665
522.724	3.74014
526.099	3.56567
529.474	2.16983
532.848	1.06967
536.223	1.69354
539.598	0.325592
542.973	0.817902
546.348	0.967346
549.722	0.77829
553.097	0.698639
556.472	7.82065
559.847	5.14011
563.222	2.2403
566.597	0.283203
569.971	0.251312
573.346	1.21832
576.721	0.583557
580.096	0.792999
583.471	0.509918
586.846	2.36005
590.22	2.09106
593.595	3.24109
596.97	2.28851
600.345	2.48248
603.72	4.48828
607.094	5.59045
610.469	7.29303
613.844	8.98428
617.219	9.8486
620.594	9.98163
623.968	8.46082
627.343	9.03491
630.718	11.3681
634.093	10.4776
637.468	12.7508
640.843	11.082
644.217	11.59
647.592	11.4971
650.967	12.1808
654.342	6.75418
657.717	5.70618
661.091	3.97296
664.466	2.26263
667.841	2.07983
671.216	0.871063
674.591	2.45862
677.966	0.326416
681.34	0.807068
684.715	0.615936
688.09	0.360535
691.465	0.534821
694.84	0.930115
698.215	1.19675
701.589	2.41626
704.964	1.3233
708.339	1.53824
711.714	4.31845
715.089	3.93573
718.463	3.55997
721.838	5.02811
725.213	5.32977
728.588	4.30057
731.963	3.23819
735.337	5.59033
738.712	5.98053
742.087	5.76877
745.462	6.88403
748.837	5.9325
752.212	5.2493
755.586	4.19272
758.961	4.24292
762.336	3.34345
765.711	3.06549
769.086	3.55069
772.46	0.460236
775.835	1.5705
779.21	1.47037
782.585	0.973022
785.96	0.921021
789.335	0.318176
792.709	0.257355
796.084	0.988464
799.459	1.41312
802.834	1.00626
806.209	2.1174
809.583	3.63135
812.958	1.56753
816.333	2.79596
819.708	2.66037
823.083	4.03439
826.457	3.63242
829.832	3.91058
833.207	5.40591
836.582	6.02258
839.957	6.2847
843.332	7.52768
846.706	7.68695
850.081	8.41367
853.456	7.27872
856.831	7.39148
860.206	8.02673
863.581	7.04306
866.955	6.87634
870.33	6.92398
873.705	8.72116
877.08	6.72812
880.455	6.60187
883.829	5.11871
887.204	4.23877
890.579	4.147
893.954	4.77551
897.329	2.25241
900.703	3.57574
904.078	0.971741
907.453	0.128723
910.828	0.244751
914.203	1.15213
917.578	0.572937
920.952	0.337585
924.327	0.024963
927.702	0.391418
931.077	0.462402
934.452	0.479034
937.827	0.116272
941.201	1.58096
944.576	1.36963
947.951	2.44855
951.326	2.04062
954.701	2.78857
958.075	3.93601
961.45	3.92151
964.825	6.09625
968.2	6.01242
971.575	4.89914
974.949	3.33878
978.324	3.7497
981.699	1.37085
985.074	0.683472
988.449	1.99005
991.823	1.00421
995.198	0.45459
998.573	0.141968
1001.95	1.18506
1005.32	0.289917
1008.7	1.15097
1012.07	0.865753
1015.45	1.7879
1018.82	0.356842
1022.2	0.899445
1025.57	0.848877
1028.95	1.98038
1032.32	1.20749
1035.7	2.08844
1039.07	6.27728
1042.45	2.84735
1045.82	3.48074
1049.19	2.93851
1052.57	2.4838
1055.94	2.27637
1059.32	1.53375
1062.69	0.25296
1066.07	1.79007
1069.44	0.792969
1072.82	0.125916
1076.19	0.381042
1079.57	1.19885
1082.94	1.8475
1086.32	2.08939
1089.69	1.75919
1093.07	1.01517
1096.44	0.272919
1099.82	2.29779
1103.19	0.509033
1106.57	1.40369
1109.94	0.355164
1113.32	0.369995
1116.69	0.262878
1120.07	0.987122
1123.44	3.21497
1126.82	0.421631
1130.19	0.112091
1133.57	0.827606
1136.94	0.440094
1140.32	0.064209
1143.69	0.810364
1147.07	0.653412
1150.44	0.821014
1153.82	0.735626
1157.19	1.33347
1160.56	0.650085
1163.94	0.041962
1167.31	0.492065
1170.69	2.65085
1174.06	0.381195
1177.44	0.746429
1180.81	1.93964
1184.19	1.48108
1187.56	1.21903
1190.94	1.17313
1194.31	2.03549
1197.69	0.794678
1201.06	1.54236
1204.44	0.808594
1207.81	1.47382
1211.19	1.87604
1214.56	1.02506
1217.94	1.83243
1221.31	1.39642
1224.69	0.626648
1228.06	1.35468
1231.44	1.65637
1234.81	2.04419
1238.18	1.06833
1241.56	1.41309
1244.93	3.20529
1248.31	1.58301
1251.68	2.10434
1255.06	2.92868
1258.43	2.85062
1261.81	1.61127
1265.18	0.873138
1268.56	0.299713
1271.93	0.22879
1275.31	0.339813
1278.68	1.76724
1282.06	0.631592
1285.43	1.13486
1288.81	1.6694
1292.18	2.27353
1295.56	1.53104
1298.93	1.83087
