Measurement: Raman, 780 nm, unoriented, Raman Data Processed
Mineral: Frondelite
Rruff sample: R050622
Ideal chemistry: (Mn^2+^_0.5_Fe^3+^_0.5_)_2_Fe^3+^_3_(PO_4_)_3_(OH)_5_
Locality: Hagendorf, Bavaria, Germany
Source: University of Arizona Mineral Museum
Description: Black bladed crystals in divergent radial aggregates
Measured chemistry: (Mn^2+^_0.63_Fe^2+^_0.37_)_Î£=1_Fe^3+^_4.00_(P_1.00_O_4_)_3_(OH)_5_
Raman shift (cm-1)	intensity
149.919	0
152.812	0.817032
155.705	0.192841
158.597	1.12987
161.49	0.266232
164.383	0.442272
167.276	1.55247
170.168	1.33225
173.061	0.351913
175.954	0.426224
178.846	0.716423
181.739	0.582954
184.632	0.093891
187.524	0.551598
190.417	0.348362
193.31	0.684769
196.203	0.556339
199.095	0.028706
201.988	1.15677
204.881	0.051624
207.773	0.601013
210.666	0.349808
213.559	0.198338
216.451	0.889801
219.344	1.69184
222.237	0.891342
225.13	0.282581
228.022	1.06042
230.915	0.122215
233.808	0.070419
236.7	0.107044
239.593	0.336212
242.486	1.13214
245.378	0.734035
248.271	0.807106
251.164	0.194641
254.056	0.356743
256.949	0.01754
259.842	0.778099
262.735	0.336876
265.627	0.176468
268.52	0.796547
271.413	0.812462
274.305	0.71191
277.198	0.842922
280.091	0.223232
282.983	0.882126
285.876	0.030743
288.769	0.416374
291.662	1.23318
294.554	0.724018
297.447	1.23723
300.34	1.37577
303.232	0.65855
306.125	0.843361
309.018	0.558994
311.911	1.21938
314.803	1.19677
317.696	2.03762
320.589	2.04054
323.481	1.34898
326.374	1.24236
329.267	0.715321
332.159	1.81226
335.052	1.29151
337.945	1.81247
340.837	2.01148
343.73	2.08514
346.623	1.73444
349.516	1.98713
352.408	1.56343
355.301	1.58755
358.194	1.27857
361.086	1.69709
363.979	1.71919
366.872	1.12559
369.764	1.4388
372.657	2.00681
375.55	1.58562
378.442	1.05757
381.335	1.14769
384.228	1.11285
387.121	1.02801
390.013	1.12147
392.906	0.610298
395.799	0.573246
398.691	0.564537
401.584	0.975391
404.477	0.750763
407.37	0.349472
410.262	0.337818
413.155	0.061935
416.048	0.896008
418.94	0.383976
421.833	0.441574
424.726	0.38538
427.618	0.000599
430.511	0.090588
433.404	0.006527
436.296	0.332893
439.189	0.477097
442.082	0.185909
444.975	0.176682
447.867	0.28521
450.76	0.3186
453.653	0.971489
456.545	0.37014
459.438	0.7589
462.331	0.844414
465.224	1.28525
468.116	1.2307
471.009	1.11542
473.902	1.41696
476.794	1.28764
479.687	1.90803
482.58	0.907104
485.472	1.60435
488.365	2.05854
491.258	1.44501
494.151	1.11174
497.043	1.03659
499.936	1.15577
502.829	0.72509
505.721	1.00489
508.614	0.76627
511.507	0.509071
514.399	0.291111
517.292	0.19363
520.185	0.232632
523.077	0.476669
525.97	0.037422
528.863	0.003399
531.756	0.450615
534.648	0.041386
537.541	0.943436
540.434	0.006767
543.326	0.177238
546.219	0.400208
549.112	0.787434
552.004	0.140903
554.897	0.651226
557.79	0.449314
560.683	0.64502
563.575	0.659485
566.468	0.534485
569.361	0.106007
572.253	0.605316
575.146	0.618687
578.039	1.50479
580.931	1.03786
583.824	1.20765
586.717	0.777031
589.61	1.49188
592.502	0.809998
595.395	1.19097
598.288	1.59373
601.18	1.35596
604.073	1.25935
606.966	0.968893
609.858	0.2761
612.751	0.733324
615.644	0.923355
618.537	0.604401
621.429	1.30431
624.322	0.917572
627.215	0.004179
630.107	0.57469
633	0.422306
635.893	0.208128
638.785	0.174734
641.678	0.046377
644.571	0.076651
647.463	0.473438
650.356	0.244003
653.249	0.735239
656.141	0.380522
659.034	0.213659
661.927	0.546322
664.82	0.399181
667.712	1.12736
670.605	0.798725
673.498	0.648161
676.39	0.530115
679.283	0.194887
682.176	0.27545
685.068	0.563581
687.961	0.521711
690.854	0.303976
693.747	0.301006
696.639	0.155523
699.532	0.032963
702.425	0.360243
705.317	0.58737
708.21	0.862057
711.103	0.05372
713.995	0.354744
716.888	0.740458
719.781	0.492008
722.674	0.158106
725.566	0.619387
728.459	0.172922
731.352	0.03293
734.244	0.618702
737.137	0.252594
740.03	0.410992
742.923	0.489311
745.815	0.583139
748.708	0.582914
751.601	0.52013
754.493	0.446264
757.386	0.731932
760.279	0.000858
763.171	0.245651
766.064	0.132441
768.957	0.464779
771.85	0.250978
774.742	0.314676
777.635	0.197906
780.528	0.62319
783.42	0.691633
786.313	0.104712
789.206	0.262476
792.098	0.728445
794.991	0.7556
797.884	0.236794
800.776	0.160559
803.669	0.03842
806.562	0.53756
809.455	0.51959
812.347	1.1845
815.24	0.553722
818.133	0.732155
821.025	0.57576
823.918	0.55685
826.811	0.537985
829.703	0.639151
832.596	0.969948
835.489	0.822653
838.381	0.278664
841.274	1.43139
844.167	0.572414
847.06	1.15778
849.952	0.742811
852.845	0.290758
855.738	0.72105
858.63	0.561047
861.523	1.03167
864.416	1.01427
867.308	0.587648
870.201	0.722759
873.094	1.19086
875.987	0.704954
878.879	0.144651
881.772	0.582218
884.665	0.22139
887.557	0.420246
890.45	0.093508
893.343	0.280909
896.236	0.154039
899.128	0.59446
902.021	0.090378
904.914	0.111925
907.806	0.530523
910.699	0.206821
913.592	0.148233
916.484	0.349348
919.377	0.177505
922.27	0.074574
925.163	0.504467
928.055	0.013712
930.948	0.243164
933.841	0.645393
936.733	0.271544
939.626	0.56344
942.519	0.608524
945.411	0.492914
948.304	0.532286
951.197	0.713062
954.09	0.852659
956.982	0.358866
959.875	0.109266
962.768	0.281834
965.66	0.206543
968.553	0.661753
971.446	0.420906
974.338	0.861933
977.231	0.123211
980.124	0.541769
983.016	0.480864
985.909	0.310869
988.802	0.575907
991.694	0.865753
994.587	0.560097
997.48	0.923733
1000.37	0.999033
1003.26	1.18343
1006.16	0.929295
1009.05	1.08258
1011.94	0.889297
1014.84	1.06296
1017.73	0.888714
1020.62	0.809772
1023.51	0.854197
1026.41	0.402519
1029.3	0.182142
1032.19	0.414677
1035.09	0.088652
1037.98	1.02194
1040.87	0.609104
1043.76	1.06501
1046.66	0.524023
1049.55	0.461203
1052.44	0.043215
1055.33	0.007504
1058.23	0.744989
1061.12	0.547846
1064.01	0.395859
1066.9	0.52195
1069.8	0.781418
1072.69	0.386795
1075.58	0.189537
1078.47	0.421551
1081.37	0.397339
1084.26	0.846056
1087.15	0.406374
1090.05	0.413519
1092.94	0.629982
1095.83	0.495636
1098.72	0.671179
1101.62	0.492334
1104.51	0.138189
1107.4	0.287607
1110.3	0.689157
1113.19	0.172379
1116.08	0.013844
1118.97	0.546413
1121.87	0.786114
1124.76	0.812044
1127.65	0.130981
1130.54	0.570873
1133.44	0.709198
1136.33	0.537218
1139.22	0.84733
1142.12	0.633831
1145.01	0.471182
1147.9	1.10509
1150.79	0.676588
1153.69	0.508371
1156.58	1.22164
1159.47	0.601778
1162.36	0.573399
1165.26	1.07089
1168.15	0.966551
1171.04	0.806141
1173.93	0.827703
1176.83	0.602772
1179.72	0.759836
1182.61	1.16035
1185.51	1.00579
1188.4	0.653053
1191.29	0.934973
1194.18	0.91441
1197.08	0.153173
1199.97	0.796549
1202.86	0.331366
1205.75	0.590561
1208.65	0.586327
1211.54	0.673826
1214.43	0.115646
1217.33	0.00654
1220.22	0.121674
1223.11	0.00679
1226	0.541124
1228.9	0.103331
1231.79	0.500652
1234.68	0.162973
1237.57	0.048134
1240.47	0.255697
1243.36	0.589098
1246.25	0.754889
1249.14	0.789064
1252.04	0.257702
1254.93	0.362837
1257.82	0.443371
1260.71	0.414845
1263.61	0.38851
1266.5	0.111523
1269.39	0.188238
1272.29	0.660698
1275.18	0.23888
1278.07	0.016397
1280.96	0.114334
1283.86	0.57324
