Measurement: Raman, 532 nm, unoriented, Raman Data Processed
Mineral: Froodite
Rruff sample: R070459
Ideal chemistry: PdBi_2_
Locality: Oktyabr'sky mine, Noril'sk, Putoran Mountains, Taymyrskiy Autonomous Okrug, Eastern-Siberian Region, Russia
Source: Michael Scott
Description: Gray metallic massive embedded in ore
Raman shift (cm-1)	intensity
165.583	0
168.476	52.7116
171.369	28.0161
174.261	18.9088
177.154	0.570862
180.047	22.3791
182.939	38.4191
185.832	56.3604
188.725	79.0565
191.617	34.4695
194.51	96.8269
197.403	80.2876
200.296	76.9966
203.188	16.0266
206.081	6.75
208.974	28.0488
211.866	22.7823
214.759	6.74954
217.652	5.71228
220.544	24.3274
223.437	4.49176
226.33	11.2577
229.222	36.8881
232.115	15.3727
235.008	44.5049
237.901	15.8385
240.793	16.7257
243.686	24.5375
246.579	19.786
249.471	38.5712
252.364	39.3047
255.257	32.7486
258.149	38.4761
261.042	33.5874
263.935	41.079
266.828	29.3113
269.72	19.8931
272.613	11.5665
275.506	31.4916
278.398	36.1426
281.291	38.1718
284.184	37.5916
287.077	20.6056
289.969	25.4675
292.862	19.9044
295.755	42.4582
298.647	22.5334
301.54	24.6203
304.433	23.4265
307.325	12.8764
310.218	32.6667
313.111	39.2035
316.003	30.108
318.896	8.03418
321.789	55.1698
324.682	19.8065
327.574	23.3653
330.467	10.3942
333.36	30.5357
336.252	27.1138
339.145	36.7213
342.038	40.9539
344.93	20.2649
347.823	47.1322
350.716	2.58237
353.609	30.9657
356.501	18.3605
359.394	53.9908
362.287	23.2675
365.179	1.2991
368.072	4.52042
370.965	44.6587
373.858	31.93
376.75	0.856445
379.643	8.28687
382.536	12.3415
385.428	34.1487
388.321	20.3289
391.214	25.2919
394.106	3.52005
396.999	12.6887
399.892	31.7064
402.784	11.5065
405.677	15.833
408.57	20.0441
411.463	28.4537
414.355	1.84534
417.248	35.108
420.141	31.5753
423.033	7.40259
425.926	6.18506
428.819	22.8202
431.712	7.62564
434.604	29.4047
437.497	18.9022
440.39	32.0527
443.282	26.0491
446.175	39.9982
449.068	9.91821
451.96	37.8417
454.853	20.1463
457.746	22.446
460.639	24.326
463.531	14.0808
466.424	8.37875
469.317	14.313
472.209	3.11554
475.102	1.31433
477.995	0.517761
480.887	4.07578
483.78	34.8041
486.673	32.872
489.565	11.1876
492.458	13.1755
495.351	23.5699
498.244	19.0221
501.136	14.7193
504.029	2.98502
506.922	2.02744
509.814	30.2561
512.707	34.7989
515.6	51.9098
518.492	32.0093
521.385	42.9842
524.278	69.2814
527.171	69.5501
530.063	46.5399
532.956	68.4404
535.849	53.1598
538.741	48.8928
541.634	17.5046
544.527	29.6497
547.419	22.9611
550.312	19.4988
553.205	9.49908
556.098	9.31403
558.99	36.5412
561.883	25.7112
564.776	1.81045
567.668	20.7356
570.561	37.8189
573.454	26.8416
576.346	8.24112
579.239	4.93739
582.132	10.4295
585.025	49.3029
587.917	10.6092
590.81	31.4301
593.703	9.30844
596.596	26.2863
599.488	34.1417
602.381	31.8703
605.274	49.1795
608.166	42.9727
611.059	26.9788
613.952	18.5611
616.844	13.5401
619.737	20.7019
622.63	3.58937
625.523	19.0811
628.415	24.1317
631.308	23.3029
634.201	8.50478
637.093	31.2687
639.986	35.6694
642.879	4.40939
645.771	19.1207
648.664	18.1899
651.557	2.10535
654.449	28.5958
657.342	31.3311
660.235	30.8364
663.128	26.8502
666.02	29.6069
668.913	27.7847
671.806	30.2905
674.698	43.4592
677.591	10.0937
680.484	13.9222
683.376	21.3197
686.269	23.1357
689.162	25.3404
692.055	33.3537
694.947	47.987
697.84	35.4874
700.733	22.5247
703.625	30.0688
706.518	46.6567
709.411	26.2564
712.303	38.556
715.196	43.5945
718.089	44.7396
720.982	41.987
723.874	87.1522
726.767	66.6438
729.66	52.4779
732.552	58.4077
735.445	37.5752
738.338	38.3903
741.231	3.45528
744.123	26.1437
747.016	17.4807
749.909	8.70847
752.801	4.61728
755.694	18.7451
758.587	6.17862
761.479	2.58499
764.372	2.91055
767.265	2.15271
770.158	8.6615
773.05	16.9889
775.943	26.4932
778.836	28.1377
781.728	19.5463
784.621	24.6274
787.514	1.78757
790.406	28.9786
793.299	7.68158
796.192	22.3751
799.085	18.8517
801.977	14.4125
804.87	21.8456
807.763	23.0618
810.655	17.9167
813.548	8.87996
816.441	23.9282
819.333	17.8684
822.226	43.274
825.119	22.9378
828.011	3.92145
830.904	12.5867
833.797	1.07936
836.69	24.7694
839.582	17.945
842.475	32.7138
845.368	5.67516
848.26	12.5456
851.153	8.91937
854.046	33.1579
856.938	28.3889
859.831	19.3569
862.724	11.6618
865.617	21.3422
868.509	32.1616
871.402	23.9333
874.295	17.2677
877.187	31.3504
880.08	44.9849
882.973	27.6527
885.865	32.3657
888.758	27.5273
891.651	12.0489
894.544	13.0383
897.436	15.2283
900.329	8.56122
903.222	34.1795
906.114	29.8809
909.007	5.51437
911.9	21.7
914.793	39.1097
917.685	20.5778
920.578	16.923
923.471	27.7989
926.363	32.2479
929.256	10.8188
932.149	37.1679
935.041	42.6961
937.934	20.7189
940.827	22.6619
943.72	2.65695
946.612	20.2292
949.505	22.0742
952.398	20.2539
955.29	18.7541
958.183	3.27568
961.076	15.3747
963.968	10.193
966.861	10.3832
969.754	13.5889
972.646	25.306
975.539	41.854
978.432	5.0806
981.325	8.73099
984.217	28.3023
987.11	25.498
990.003	23.2849
992.895	34.9438
995.788	19.3308
998.681	36.8897
1001.57	35.8556
1004.47	34.4082
1007.36	29.7225
1010.25	7.40233
1013.14	7.58113
1016.04	13.5764
1018.93	34.244
1021.82	21.7366
1024.71	27.7708
1027.61	29.1711
1030.5	21.0284
1033.39	38.5171
1036.29	24.1133
1039.18	18.7252
1042.07	2.48102
1044.96	39.5852
1047.86	15.2885
1050.75	34.8129
1053.64	16.6599
1056.54	1.0477
1059.43	23.1616
1062.32	9.22842
1065.21	30.1304
1068.11	21.6172
1071	29.7752
1073.89	24.8017
1076.78	34.1876
1079.68	17.8768
1082.57	16.4905
1085.46	10.2027
1088.35	16.4269
1091.25	21.1205
1094.14	6.24567
1097.03	10.9078
1099.92	11.9771
1102.82	40.2701
1105.71	4.83763
1108.6	7.01298
1111.5	26.5546
1114.39	15.6454
1117.28	15.4725
1120.17	16.9702
1123.07	9.59236
1125.96	2.2709
1128.85	17.3971
1131.74	25.3557
1134.64	18.2738
1137.53	19.5255
1140.42	19.5653
1143.32	27.2529
1146.21	28.3247
1149.1	6.56548
1151.99	0.575928
1154.89	2.14734
1157.78	10.7828
1160.67	8.79211
1163.57	1.24747
1166.46	10.6488
1169.35	2.40944
1172.24	0.850037
1175.13	28.5234
1178.03	12.216
1180.92	15.9082
1183.81	28.0648
1186.71	8.40346
1189.6	7.62441
1192.49	0.972336
1195.38	33.8605
1198.28	21.5351
1201.17	4.87189
1204.06	8.17438
1206.95	31.8624
1209.85	17.1796
1212.74	27.2661
1215.63	21.3849
1218.53	12.7743
1221.42	29.5094
1224.31	6.61386
1227.2	7.29414
1230.1	37.7504
1232.99	3.0005
1235.88	32.9126
1238.78	52.6823
1241.67	10.9752
1244.56	35.3749
1247.45	18.4004
1250.35	9.91173
1253.24	28.0417
1256.13	15.3812
1259.02	27.2973
1261.92	32.2214
1264.81	19.6989
1267.7	29.5313
1270.6	11.3583
1273.49	12.9927
1276.38	0.074326
1279.27	21.3949
1282.16	2.04005
