Measurement: Raman, 780 nm, unoriented, Raman Data Processed
Mineral: Froodite
Rruff sample: R070459
Ideal chemistry: PdBi_2_
Locality: Oktyabr'sky mine, Noril'sk, Putoran Mountains, Taymyrskiy Autonomous Okrug, Eastern-Siberian Region, Russia
Source: Michael Scott
Description: Gray metallic massive embedded in ore
Raman shift (cm-1)	intensity
161.468	0
164.36	0.932495
167.253	5.51794
170.146	20.4144
173.038	41.1538
175.931	47.5518
178.824	45.8683
181.716	70.9839
184.609	43.5249
187.502	60.9285
190.395	27.3767
193.287	3.5058
196.18	27.0717
199.073	25.4383
201.965	22.6506
204.858	4.01874
207.751	6.81128
210.643	0.026001
213.536	7.37048
216.429	26.9874
219.322	25.7871
222.214	8.57959
225.107	1.22528
228	8.07489
230.892	33.494
233.785	30.3076
236.678	22.7603
239.571	35.7059
242.463	29.9258
245.356	39.4894
248.249	30.5095
251.141	24.1797
254.034	25.3337
256.927	51.3211
259.819	10.7157
262.712	13.7203
265.605	39.1041
268.498	33.4968
271.39	42.006
274.283	22.952
277.176	44.4271
280.068	46.1614
282.961	19.7148
285.854	10.8714
288.746	26.1506
291.639	53.2297
294.532	3.58661
297.425	56.0981
300.317	45.9694
303.21	9.4928
306.103	9.00714
308.995	20.41
311.888	40.6688
314.781	49.9647
317.673	25.7562
320.566	59.0236
323.459	41.2511
326.351	9.8562
329.244	30.0888
332.137	34.6956
335.03	42.1454
337.922	50.3156
340.815	53.9161
343.708	49.8868
346.6	49.1101
349.493	39.6727
352.386	57.77
355.279	24.7531
358.171	36.6354
361.064	48.7189
363.957	28.9717
366.849	13.4618
369.742	36.7477
372.635	3.79047
375.527	33.9066
378.42	41.9181
381.313	50.1181
384.205	28.8225
387.098	35.3842
389.991	24.6904
392.884	2.72278
395.776	47.3728
398.669	31.0311
401.562	4.1217
404.454	19.9529
407.347	31.7497
410.24	10.1498
413.132	18.7331
416.025	37.4304
418.918	24.9983
421.811	12.7789
424.703	44.2432
427.596	24.2962
430.489	39.5078
433.381	47.4364
436.274	25.9378
439.167	17.1086
442.06	19.8511
444.952	45.9857
447.845	28.3226
450.738	44.3055
453.63	29.9935
456.523	29.2468
459.416	13.3248
462.308	47.9302
465.201	14.6472
468.094	21.1921
470.986	36.3703
473.879	45.431
476.772	56.3278
479.665	68.7275
482.557	58.6288
485.45	22.0877
488.343	31.3215
491.235	38.0335
494.128	10.8315
497.021	15.7978
499.913	35.742
502.806	18.487
505.699	10.1056
508.592	33.0831
511.484	8.04797
514.377	21.8117
517.27	19.4674
520.162	15.9323
523.055	27.5159
525.948	24.5728
528.841	34.6942
531.733	7.38348
534.626	1.04193
537.519	4.2561
540.411	28.7309
543.304	6.98486
546.197	39.5506
549.089	86.5721
551.982	146.866
554.875	157.748
557.768	127.848
560.66	52.5239
563.553	48.5209
566.446	36.502
569.338	10.6769
572.231	28.613
575.124	38.7432
578.016	20.3607
580.909	19.2878
583.802	6.11493
586.694	8.78998
589.587	26.271
592.48	2.6015
595.373	5.73285
598.265	11.1491
601.158	11.5098
604.051	47.612
606.943	30.2891
609.836	31.8639
612.729	16.2336
615.621	15.7532
618.514	19.2022
621.407	33.0806
624.3	34.1561
627.192	37.6041
630.085	42.0355
632.978	33.625
635.87	7.64123
638.763	44.7053
641.656	40.2968
644.548	45.7174
647.441	0.87616
650.334	31.6719
653.227	25.6285
656.119	5.2179
659.012	24.3735
661.905	28.7341
664.797	47.2426
667.69	19.5839
670.583	12.2938
673.476	4.52246
676.368	31.8818
679.261	14.3469
682.154	25.366
685.046	43.5886
687.939	3.70129
690.832	24.9117
693.724	23.4412
696.617	30.2885
699.51	19.3776
702.403	40.3718
705.295	48.8805
708.188	26.5374
711.081	14.0741
713.973	43.9733
716.866	6.41138
719.759	6.52979
722.651	21.9056
725.544	2.1142
728.437	36.6893
731.33	44.6349
734.222	35.5787
737.115	15.9807
740.008	31.532
742.9	50.2173
745.793	4.25586
748.686	1.88348
751.578	26.9741
754.471	13.0274
757.364	8.51562
760.256	42.8867
763.149	0.748474
766.042	42.9513
768.935	18.0162
771.827	13.4942
774.72	26.9711
777.613	22.2932
780.505	26.2393
783.398	15.2587
786.291	25.0064
789.183	15.3517
792.076	10.8093
794.969	14.8074
797.862	23.1525
800.754	19.5608
803.647	32.8981
806.54	3.8529
809.432	41.6632
812.325	11.733
815.218	24.0164
818.111	28.7039
821.003	32.4101
823.896	16.7351
826.789	18.4191
829.681	30.8084
832.574	32.2974
835.467	1.48956
838.359	32.2027
841.252	33.3207
844.145	42.4098
847.037	1.20612
849.93	9.4184
852.823	30.1085
855.716	32.6894
858.608	11.9705
861.501	0.07782
864.394	57.7604
867.286	16.6492
870.179	42.4847
873.072	27.7015
875.964	47.7687
878.857	10.7139
881.75	24.4612
884.643	15.4464
887.535	17.816
890.428	35.407
893.321	32.14
896.213	35.2765
899.106	56.772
901.999	17.5552
904.891	11.8638
907.784	57.1884
910.677	39.4962
913.569	42.3225
916.462	26.5996
919.355	15.0818
922.248	12.4387
925.14	13.8991
928.033	29.1335
930.926	38.6771
933.818	10.2141
936.711	44.1443
939.604	13.0704
942.496	9.08893
945.389	28.3629
948.282	16.7166
951.175	16.3002
954.067	37.851
956.96	38.3461
959.853	29.9764
962.745	56.2542
965.638	2.69501
968.531	12.7899
971.423	28.5317
974.316	27.512
977.209	0.88147
980.102	24.0121
982.994	28.2853
985.887	27.3305
988.78	19.9066
991.672	25.6165
994.565	20.9571
997.458	20.6872
1000.35	15.2638
1003.24	20.8038
1006.14	38.6669
1009.03	20.7428
1011.92	4.10596
1014.81	1.92285
1017.71	24.9437
1020.6	32.9049
1023.49	35.3942
1026.38	14.308
1029.28	58.7233
1032.17	39.4303
1035.06	20.1345
1037.96	27.8108
1040.85	0.037476
1043.74	13.6528
1046.63	30.3297
1049.53	39.2024
1052.42	43.0737
1055.31	30.1153
1058.2	42.3512
1061.1	20.438
1063.99	7.97223
1066.88	24.4206
1069.78	2.14368
1072.67	12.1857
1075.56	16.5022
1078.45	11.0934
1081.35	29.551
1084.24	12.6461
1087.13	14.7017
1090.02	2.26721
1092.92	17.2014
1095.81	8.55023
1098.7	20.6339
1101.6	13.332
1104.49	11.0707
1107.38	12.3644
1110.27	13.5376
1113.17	8.03296
1116.06	22.1844
1118.95	20.439
1121.84	4.71454
1124.74	22.0698
1127.63	10.4539
1130.52	8.49359
1133.41	19.2366
1136.31	50.5156
1139.2	11.106
1142.09	23.8368
1144.98	21.9287
1147.88	24.926
1150.77	26.2077
1153.66	76.2323
1156.56	24.6148
1159.45	19.671
1162.34	14.8857
1165.23	26.1431
1168.13	51.2167
1171.02	12.2407
1173.91	9.52228
1176.81	39.022
1179.7	13.0549
1182.59	25.9618
1185.48	12.3295
1188.38	41.8821
1191.27	47.7567
1194.16	45.7171
1197.05	1.91675
1199.95	23.2743
1202.84	32.7878
1205.73	37.3388
1208.62	26.9246
1211.52	1.1145
1214.41	34.5363
1217.3	20.5673
1220.2	22.3564
1223.09	1.25116
1225.98	40.7722
1228.87	29.493
1231.77	5.63422
1234.66	33.5992
1237.55	50.1199
1240.44	13.7856
1243.34	22.7701
1246.23	24.6235
1249.12	46.2013
1252.02	7.47589
1254.91	23.4815
1257.8	5.30701
1260.69	23.7356
1263.59	1.62848
1266.48	8.15009
1269.37	9.24493
1272.26	23.9504
1275.16	0
