Measurement: Raman, 532 nm, unoriented, Raman Data Processed
Mineral: Gadolinite-(Y)
Rruff sample: R080129
Ideal chemistry: Fe^2+^Be_2_Y^3+^_2_(SiO_4_)_2_O_2_
Locality: Ytterøya mine, Røvika, Ytterøya (island), Levanger, Nord-Trøndelag, Norway
Source: Michael Scott
Description: Reddish-brown fragment from metamict sample R070340, after heating at T = 1000 C for 23 hours
Raman shift (cm-1)	intensity
148.38	0
151.272	2.31564
154.165	6.28462
157.058	0.792877
159.951	1.76617
162.843	5.49948
165.736	2.73593
168.629	3.73101
171.521	2.63952
174.414	0.211044
177.307	0.19915
180.199	0.475555
183.092	0.396416
185.985	0.674744
188.877	0.68853
191.77	0.825706
194.663	2.8669
197.556	4.73256
200.448	13.719
203.341	25.5131
206.234	37.5775
209.126	49.4832
212.019	64.204
214.912	92.6065
217.804	138.651
220.697	179.385
223.59	132.757
226.483	59.8028
229.375	31.0516
232.268	21.1136
235.161	20.6499
238.053	25.507
240.946	20.86
243.839	8.19185
246.732	0.933365
249.624	0.500229
252.517	0.409958
255.41	4.19984
258.302	10.9679
261.195	15.5894
264.088	26.4988
266.98	41.1362
269.873	58.5981
272.766	77.0734
275.659	99.413
278.551	128.204
281.444	162.18
284.337	192.932
287.229	197.695
290.122	166.564
293.015	131.581
295.907	100.522
298.8	71.9811
301.693	48.1997
304.586	32.0894
307.478	21.5254
310.371	13.1554
313.264	6.67455
316.156	1.65888
319.049	1.48793
321.942	1.61208
324.834	0.584961
327.727	0.324646
330.62	4.46368
333.512	8.94682
336.405	15.211
339.298	22.6312
342.191	30.351
345.083	38.8674
347.976	44.8122
350.869	51.2096
353.761	54.3917
356.654	55.0923
359.547	53.623
362.44	50.0557
365.332	45.5806
368.225	42.2462
371.118	36.2343
374.01	34.5716
376.903	35.8409
379.796	37.1
382.688	43.1942
385.581	52.3121
388.474	64.4655
391.366	77.4394
394.259	90.061
397.152	101.396
400.045	105.95
402.937	98.6765
405.83	81.6362
408.723	63.6553
411.615	43.1851
414.508	29.7689
417.401	17.5206
420.293	10.2052
423.186	5.67744
426.079	1.60059
428.972	0.245651
431.864	0.742767
434.757	0.847717
437.65	1.75026
440.542	0.253754
443.435	1.71088
446.328	3.20784
449.221	5.5099
452.113	7.26642
455.006	8.88091
457.899	11.0594
460.791	13.4682
463.684	14.655
466.577	17.6911
469.469	18.7402
472.362	21.3344
475.255	24.5898
478.147	28.477
481.04	31.8478
483.933	34.659
486.826	35.9651
489.718	34.2381
492.611	31.6695
495.504	28.0976
498.396	23.3875
501.289	18.6326
504.182	16.2003
507.075	12.2356
509.967	9.17708
512.86	7.26636
515.753	6.84163
518.645	5.18141
521.538	6.00151
524.431	5.9119
527.323	5.56534
530.216	4.57033
533.109	3.71417
536.001	0.884689
538.894	1.65454
541.787	0.6353
544.68	0.323273
547.572	0.464813
550.465	0.032867
553.358	1.22101
556.25	1.0085
559.143	1.71756
562.036	0.940399
564.928	0.241501
567.821	1.14395
570.714	0.973511
573.607	2.1776
576.499	3.20401
579.392	4.25293
582.285	6.0751
585.177	9.53696
588.07	13.5346
590.963	18.2502
593.856	22.5813
596.748	27.3811
599.641	30.634
602.534	30.9652
605.426	28.4106
608.319	23.5602
611.212	17.8879
614.104	13.8201
616.997	8.41533
619.89	5.47003
622.783	3.3942
625.675	2.74689
628.568	4.6066
631.461	5.37799
634.353	7.28648
637.246	9.38621
640.139	11.95
643.031	14.6936
645.924	16.0054
648.817	19.4668
651.71	20.2987
654.602	20.1854
657.495	18.7273
660.388	15.8613
663.28	13.3109
666.173	10.4081
669.066	7.29619
671.958	7.30778
674.851	3.68289
677.744	0.684753
680.636	0.206924
683.529	0.190765
686.422	1.38628
689.315	1.27388
692.207	2.60782
695.1	3.69325
697.993	5.48025
700.885	6.66234
703.778	7.53008
706.671	9.38196
709.563	9.64385
712.456	9.90482
715.349	9.15736
718.242	8.74014
721.134	7.1253
724.027	6.08486
726.92	4.97695
729.812	4.83585
732.705	4.4674
735.598	3.02519
738.49	2.79219
741.383	2.75869
744.276	1.33083
747.169	0.52932
750.061	0.389587
752.954	0.421944
755.847	0.704025
758.739	0.513214
761.632	0.307068
764.525	0.296883
767.418	0.039803
770.31	0.693352
773.203	1.15958
776.096	1.14089
778.988	1.89706
781.881	2.25559
784.774	2.00736
787.666	2.48687
790.559	2.41997
793.452	1.60097
796.345	1.82056
799.237	1.55965
802.13	2.62234
805.023	2.94241
807.915	1.35258
810.808	0.985222
813.701	0.086472
816.593	0.201393
819.486	0.437042
822.379	0.414658
825.271	0.956131
828.164	0.5952
831.057	1.12366
833.95	1.83507
836.842	2.51004
839.735	3.68096
842.628	6.06509
845.52	6.94649
848.413	8.75201
851.306	10.0611
854.198	13.4585
857.091	15.8026
859.984	16.7514
862.877	19.5893
865.769	20.3881
868.662	21.614
871.555	23.1469
874.447	22.6355
877.34	23.1876
880.233	24.0926
883.125	24.4653
886.018	24.4267
888.911	26.1388
891.804	26.6837
894.696	27.3415
897.589	27.7226
900.482	27.6491
903.374	27.9656
906.267	27.5146
909.16	26.4768
912.053	24.5517
914.945	20.2594
917.838	16.4719
920.731	13.5817
923.623	10.4499
926.516	8.58057
929.409	8.05888
932.301	6.4314
935.194	4.76492
938.087	4.7203
940.98	2.79924
943.872	4.24809
946.765	3.53651
949.658	3.3432
952.55	3.48125
955.443	2.47653
958.336	2.7564
961.228	2.92127
964.121	2.00624
967.014	2.09908
969.907	1.41576
972.799	0.385994
975.692	0.137848
978.585	1.11442
981.477	0.049576
984.37	0.703453
987.263	0.004868
990.155	0.813416
993.048	0.359787
995.941	0.031494
998.833	0.255219
1001.73	0.689774
1004.62	1.37676
1007.51	0.175247
1010.4	0.747169
1013.3	0.361687
1016.19	2.6721
1019.08	1.23153
1021.98	2.99111
1024.87	2.21519
1027.76	3.29974
1030.65	3.54382
1033.55	3.73973
1036.44	4.31094
1039.33	4.69042
1042.22	4.39302
1045.12	4.16473
1048.01	4.26257
1050.9	4.2702
1053.8	4.59911
1056.69	4.47713
1059.58	4.69778
1062.47	3.78525
1065.37	3.17869
1068.26	3.06528
1071.15	3.04137
1074.04	3.78116
1076.94	3.66044
1079.83	3.30773
1082.72	3.12238
1085.62	2.82596
1088.51	2.92614
1091.4	2.10586
1094.29	2.51368
1097.18	2.74709
1100.08	2.6814
1102.97	2.23423
1105.86	1.55199
1108.76	1.5406
1111.65	0.716187
1114.54	0.869041
1117.43	0.534821
1120.33	0.722412
1123.22	0.599274
1126.11	0.416603
1129.01	0.121681
1131.9	0.459572
1134.79	1.38663
1137.68	0.676544
1140.58	0.505371
1143.47	0.599693
1146.36	1.53563
1149.25	1.71399
1152.15	1.28297
1155.04	1.57114
1157.93	2.15583
1160.83	3.24219
1163.72	3.19598
1166.61	3.75763
1169.5	3.78689
1172.4	3.3334
1175.29	3.63434
1178.18	3.87582
1181.07	4.83418
1183.97	3.66277
1186.86	4.42889
1189.75	3.61544
1192.64	3.38878
1195.54	3.24212
1198.43	2.8973
1201.32	2.79318
1204.21	2.35892
1207.11	2.11478
1210	1.47868
1212.89	1.5559
1215.79	1.26878
1218.68	1.53331
1221.57	1.15421
1224.46	0.228149
1227.36	0.509926
1230.25	0.187157
1233.14	0.364578
1236.04	0.470146
1238.93	0.093758
1241.82	0.544266
1244.71	0.31115
1247.61	0.457855
1250.5	0.866577
1253.39	1.92888
1256.28	3.34645
1259.18	4.42857
1262.07	3.90373
1264.96	5.40146
1267.86	5.99983
1270.75	7.08069
1273.64	5.87279
1276.53	6.51874
1279.42	6.39963
1282.32	6.66951
1285.21	7.6197
1288.1	7.52327
1291	7.55164
1293.89	5.94064
1296.78	4.94652
1299.67	3.13474
1302.57	0.026733
