Measurement: Raman, 780 nm, unoriented, Raman Data Processed
Mineral: Gadolinite-(Y)
Rruff sample: R080129
Ideal chemistry: Fe^2+^Be_2_Y^3+^_2_(SiO_4_)_2_O_2_
Locality: Ytterøya mine, Røvika, Ytterøya (island), Levanger, Nord-Trøndelag, Norway
Source: Michael Scott
Description: Reddish-brown fragment from metamict sample R070340, after heating at T = 1000 C for 23 hours
Raman shift (cm-1)	intensity
148.262	0
151.155	5.36377
154.048	12.8212
156.94	22.9845
159.833	28.3745
162.726	31.9014
165.619	34.0264
168.511	28.1581
171.404	22.5615
174.297	16.601
177.189	11.2629
180.082	5.38214
182.975	0.77179
185.868	1.02783
188.76	1.21582
191.653	1.84082
194.546	4.88617
197.438	8.69623
200.331	17.1204
203.224	32.1592
206.117	50.0684
209.009	61.3497
211.902	75.5721
214.795	83.3658
217.687	99.1035
220.58	119.948
223.473	137.485
226.365	105.821
229.258	81.4932
232.151	69.278
235.043	55.2561
237.936	36.1155
240.829	23.7203
243.722	10.6313
246.614	7.00977
249.507	6.87622
252.4	0.716675
255.292	6.12915
258.185	10.2858
261.078	8.11841
263.971	2.91223
266.863	5.46863
269.756	16.4851
272.649	38.0573
275.541	53.1432
278.434	83.7763
281.327	120.096
284.219	158.907
287.112	195.85
290.005	207.086
292.897	191.113
295.79	174.434
298.683	161.071
301.576	147.998
304.468	137.984
307.361	128.279
310.254	119.908
313.146	111.183
316.039	98.2938
318.932	90.2096
321.825	78.2363
324.717	68.2737
327.61	65.525
330.503	65.6709
333.395	68.1479
336.288	72.5021
339.181	84.7653
342.074	96.2999
344.966	103.532
347.859	109.522
350.752	105.053
353.644	97.7657
356.537	91.4644
359.43	83.3075
362.322	79.9547
365.215	75.2789
368.108	75.1782
371	73.9933
373.893	78.0648
376.786	84.6146
379.679	90.4233
382.571	96.141
385.464	102.74
388.357	107.974
391.249	108.998
394.142	109.855
397.035	111.44
399.928	111.166
402.82	101.465
405.713	87.7943
408.606	67.0514
411.498	44.9312
414.391	30.5133
417.284	16.4076
420.176	9.12476
423.069	6.63672
425.962	2.88623
428.854	5.19788
431.747	7.17712
434.64	7.9552
437.533	7.66064
440.425	7.30908
443.318	2.07007
446.211	6.66956
449.103	18.1056
451.996	30.9648
454.889	55.7751
457.781	81.4816
460.674	112.388
463.567	148.674
466.46	188.122
469.352	226.523
472.245	266.536
475.138	307.897
478.03	342.684
480.923	375.14
483.816	397.821
486.709	408.201
489.601	402.923
492.494	384.802
495.387	361.238
498.279	324.829
501.172	280.45
504.065	230.196
506.957	183.107
509.85	138.813
512.743	98.2904
515.636	65.8612
518.528	40.2051
521.421	20.9439
524.314	11.2158
527.206	0.998779
530.099	1.47009
532.992	2.34094
535.885	7.53735
538.777	15.6256
541.67	23.3916
544.563	33.6116
547.455	43.257
550.348	48.5908
553.241	53.5726
556.133	60.9237
559.026	66.9518
561.919	71.2443
564.812	75.8328
567.704	84.1951
570.597	91.8403
573.49	97.2884
576.382	101.009
579.275	102.808
582.168	100.214
585.06	94.3009
587.953	93.6143
590.846	85.655
593.739	79.4821
596.631	70.2764
599.524	64.7318
602.417	53.8737
605.309	44.2512
608.202	32.2262
611.095	19.1519
613.987	9.75812
616.88	0.716553
619.773	0.901672
622.665	3.7644
625.558	1.94452
628.451	4.00311
631.344	1.59296
634.236	2.56348
637.129	4.56451
640.022	9.37531
642.914	15.5695
645.807	22.7963
648.7	29.3597
651.592	33.4295
654.485	39.8321
657.378	45.7551
660.271	52.7826
663.163	56.9998
666.056	61.5866
668.949	68.4922
671.841	69.3342
674.734	70.2046
677.627	69.7624
680.519	66.363
683.412	65.767
686.305	58.5519
689.198	51.124
692.09	44.5562
694.983	37.4527
697.876	33.3396
700.769	30.4761
703.661	28.9999
706.554	25.6569
709.447	23.6816
712.339	23.0661
715.232	25.1615
718.125	24.7039
721.017	27.673
723.91	28.6611
726.803	29.6083
729.696	30.9213
732.588	29.7614
735.481	29.1304
738.374	28.5808
741.266	25.3226
744.159	24.9648
747.052	21.5942
749.944	20.1203
752.837	16.827
755.73	11.1916
758.622	9.00513
761.515	6.33893
764.408	3.13318
767.301	2.28107
770.193	2.69635
773.086	0.132202
775.979	2.5976
778.871	1.64429
781.764	1.79178
784.657	0.969116
787.549	1.55228
790.442	1.93048
793.335	5.5376
796.228	8.38663
799.12	12.9695
802.013	14.2554
804.906	16.4632
807.798	19.691
810.691	23.4153
813.584	22.7209
816.477	24.5201
819.369	27.7906
822.262	27.9684
825.155	27.2338
828.047	26.5466
830.94	26.1574
833.833	23.9046
836.726	21.7687
839.618	19.9083
842.511	18.3719
845.404	16.4676
848.296	14.1522
851.189	12.3311
854.082	11.1712
856.974	9.04993
859.867	7.68222
862.76	7.01959
865.653	5.10388
868.545	2.32626
871.438	1.55179
874.331	0.43866
877.223	0.336212
880.116	0.469208
883.009	0.878052
885.901	1.13553
888.794	3.5047
891.687	4.21954
894.58	7.74985
897.472	10.6881
900.365	14.9436
903.258	18.7263
906.15	21.9719
909.043	25.6954
911.936	26.444
914.828	24.7433
917.721	20.7104
920.614	16.5506
923.506	14.733
926.399	10.7753
929.292	9.70392
932.185	7.97531
935.077	6.85516
937.97	5.23383
940.863	3.65774
943.755	4.36197
946.648	3.6517
949.541	3.47829
952.433	3.71951
955.326	4.15945
958.219	3.10706
961.112	2.45969
964.004	3.27132
966.897	1.69234
969.79	2.92136
972.682	1.4433
975.575	1.5489
978.468	0.773468
981.361	0.224426
984.253	2.13028
987.146	1.10243
990.039	2.46733
992.931	2.14845
995.824	1.96774
998.717	0.088394
1001.61	0.024673
1004.5	1.96619
1007.39	0.661255
1010.29	1.14262
1013.18	0.404266
1016.07	0.427032
1018.97	0.670181
1021.86	1.14981
1024.75	0.22879
1027.64	0.509537
1030.54	0.051804
1033.43	1.04526
1036.32	1.56189
1039.21	1.03334
1042.11	0.749084
1045	0.714706
1047.89	0.669235
1050.79	0.723785
1053.68	0.004303
1056.57	0.180115
1059.46	0.173401
1062.36	3.63919
1065.25	6.95578
1068.14	11.9267
1071.03	19.0838
1073.93	29.7068
1076.82	41.7414
1079.71	55.2581
1082.61	73.6508
1085.5	92.7001
1088.39	110.535
1091.28	130.276
1094.18	147.956
1097.07	162.325
1099.96	174.026
1102.85	182.213
1105.75	185.639
1108.64	185.65
1111.53	188.069
1114.42	186.001
1117.32	184.273
1120.21	180.268
1123.1	178.499
1126	173.414
1128.89	164.794
1131.78	154.895
1134.67	140.884
1137.57	128.633
1140.46	112.406
1143.35	98.9811
1146.24	83.9797
1149.14	71.8461
1152.03	58.0046
1154.92	47.8297
1157.82	34.5843
1160.71	24.626
1163.6	17.0605
1166.49	7.31171
1169.39	2.08765
1172.28	2.76092
1175.17	6.09491
1178.06	6.84729
1180.96	3.47772
1183.85	0.871277
1186.74	14.6992
1189.63	35.574
1192.53	62.2501
1195.42	100.524
1198.31	153.251
1201.21	203.405
1204.1	249.729
1206.99	279.361
1209.88	284.572
1212.78	259.567
1215.67	212.868
1218.56	162.01
1221.45	117.045
1224.35	88.0292
1227.24	74.8727
1230.13	70.9731
1233.03	69.7144
1235.92	76.0531
1238.81	91.4237
1241.7	109.896
1244.6	142.227
1247.49	189.793
1250.38	237.303
1253.28	279.988
1256.17	310.153
1259.06	322.063
1261.95	300.675
1264.85	255.967
1267.74	192.453
1270.63	122.503
1273.52	62.6956
1276.42	27.4158
1279.31	5.05298
1282.2	1.62476
1285.09	1.42773
