Measurement: Raman, 785 nm, unoriented, Raman Data Processed
Mineral: Gadolinite-(Y)
Rruff sample: R070340
Ideal chemistry: Fe^2+^Be_2_Y^3+^_2_(SiO_4_)_2_O_2_
Locality: Ytterøya Mine, Røvika, Ytterøya (island), Levanger, Nord-Trøndelag, Norway
Source: Michael Scott
Description: Black vitreous, metamict massive, a portion of the sample was heated, and is recorded under R080129.
Raman shift (cm-1)	intensity
169.713	0
172.606	22.3676
175.499	40.9119
178.391	37.0686
181.284	42.5311
184.177	29.134
187.069	54.9626
189.962	63.8757
192.855	47.2832
195.748	32.6252
198.64	41.9085
201.533	57.0018
204.426	49.9315
207.318	31.366
210.211	14.3665
213.104	14.2698
215.996	17.4896
218.889	0.134766
221.782	9.99048
224.674	7.50586
227.567	23.7217
230.46	20.0739
233.353	21.9512
236.245	5.33838
239.138	22.8506
242.031	29.4407
244.923	33.3903
247.816	36.6996
250.709	15.3336
253.601	17.2202
256.494	30.3849
259.387	43.0837
262.28	21.0662
265.172	14.3755
268.065	32.9835
270.958	29.6562
273.85	9.22656
276.743	17.3816
279.636	16.0592
282.529	43.3024
285.421	17.2268
288.314	42.8219
291.207	36.6619
294.099	42.3466
296.992	35.1794
299.885	37.7994
302.777	47.7398
305.67	15.5497
308.563	28.3307
311.455	46.2439
314.348	0.96521
317.241	19.8373
320.134	34.3712
323.026	16.8502
325.919	28.5704
328.812	18.9973
331.704	15.3383
334.597	36.1965
337.49	29.9104
340.382	57.5541
343.275	5.47961
346.168	38.6735
349.061	16.6752
351.953	30.4033
354.846	39.2944
357.739	17.8321
360.631	4.05859
363.524	20.4464
366.417	0.42749
369.31	3.13208
372.202	17.6735
375.095	64.6624
377.988	23.454
380.88	28.6365
383.773	8.81665
386.666	30.0166
389.558	28.6031
392.451	56.7081
395.344	3.91357
398.236	7.65869
401.129	43.7493
404.022	16.8182
406.915	17.4203
409.807	26.0284
412.7	25.4132
415.593	18.7791
418.485	26.7356
421.378	11.8188
424.271	49.2921
427.163	22.4674
430.056	7.33447
432.949	35.7466
435.842	33.7035
438.734	18.1382
441.627	37.1927
444.52	1.53955
447.412	10.141
450.305	20.9944
453.198	36.3263
456.091	29.1555
458.983	15.6693
461.876	12.3301
464.769	20.0161
467.661	32.5613
470.554	5.17737
473.447	55.0112
476.339	16.9947
479.232	12.9575
482.125	47.1271
485.017	1.44043
487.91	6.74414
490.803	13.9574
493.696	13.3195
496.588	16.2325
499.481	3.73633
502.374	1.25183
505.266	37.6495
508.159	39.9943
511.052	4.75317
513.944	30.9731
516.837	22.4923
519.73	34.9819
522.623	14.79
525.515	3.21582
528.408	28.9947
531.301	3.19141
534.193	20.062
537.086	38.1547
539.979	22.2386
542.871	22.5951
545.764	8.48401
548.657	17.2242
551.55	7.52588
554.442	23.4055
557.335	39.5591
560.228	0.301514
563.12	52.4119
566.013	2.51917
568.906	44.1501
571.798	17.6898
574.691	16.2694
577.584	15.7981
580.477	14.3008
583.369	27.6382
586.262	4.16504
589.155	64.4999
592.047	11.8641
594.94	40.2693
597.833	38.3147
600.726	40.6221
603.618	6.45178
606.511	7.34497
609.404	28.408
612.296	15.1408
615.189	5.60425
618.082	9.31982
620.974	0.874878
623.867	2.11926
626.76	11.0088
629.653	35.4843
632.545	25.1246
635.438	14.3366
638.331	6.03516
641.223	31.1536
644.116	37.6367
647.009	14.8557
649.901	4.47571
652.794	5.71912
655.687	11.0411
658.58	20.6464
661.472	2.63135
664.365	9.79285
667.258	12.7957
670.15	36.7168
673.043	39.8682
675.936	32.6504
678.828	32.316
681.721	39.9937
684.614	43.8077
687.506	14.1951
690.399	29.248
693.292	3.99548
696.185	12.8533
699.077	46.1586
701.97	20.3353
704.863	34.1315
707.755	36.8425
710.648	42.1852
713.541	41.1183
716.433	39.7071
719.326	39.3513
722.219	43.6475
725.112	46.6069
728.004	31.1851
730.897	6.80396
733.79	1.98535
736.682	28.4739
739.575	14.4758
742.468	18.1587
745.361	39.3875
748.253	24.2594
751.146	39.3591
754.039	28.0005
756.931	15.8768
759.824	53.2588
762.717	20.2629
765.609	29.4659
768.502	28.3497
771.395	12.372
774.288	7.38379
777.18	2.81006
780.073	24.9117
782.966	13.5011
785.858	27.8719
788.751	26.1893
791.644	13.6648
794.536	28.5349
797.429	0.452759
800.322	33.7321
803.215	9.6665
806.107	4.90015
809	0.513672
811.893	11.4722
814.785	15.5901
817.678	46.1117
820.571	22.1758
823.463	0.568359
826.356	18.1232
829.249	13.3005
832.141	24.1965
835.034	28.692
837.927	45.0548
840.82	29.3577
843.712	11.9661
846.605	47.1901
849.498	35.7042
852.39	42.7437
855.283	60.8852
858.176	42.3442
861.068	35.6774
863.961	53.4031
866.854	59.2322
869.747	89.2937
872.639	64.4884
875.532	62.6339
878.425	77.221
881.317	37.9741
884.21	53.6624
887.103	34.985
889.995	62.7063
892.888	51.6791
895.781	53.3145
898.674	37.5333
901.566	74.6703
904.459	47.4928
907.352	37.0727
910.244	37.1495
913.137	53.7968
916.03	48.6372
918.923	21.9683
921.815	31.9454
924.708	1.56628
927.601	41.4156
930.493	32.2383
933.386	32.6769
936.279	26.1882
939.171	16.208
942.064	29.8301
944.957	23.9829
947.85	45.647
950.742	47.4701
953.635	29.3044
956.528	12.3888
959.42	25.7706
962.313	31.5579
965.206	9.16479
968.098	18.2615
970.991	10.8756
973.884	3.31982
976.777	10.6664
979.669	10.8479
982.562	25.8372
985.455	10.5464
988.347	0.812866
991.24	10.2678
994.133	4.40149
997.025	15.819
999.918	39.9228
1002.81	26.0134
1005.7	30.5919
1008.6	23.3978
1011.49	2.5946
1014.38	14.8052
1017.27	36.5084
1020.17	20.8253
1023.06	8.97815
1025.95	2.03748
1028.85	34.9125
1031.74	14.6907
1034.63	23.4163
1037.52	15.2904
1040.42	17.5216
1043.31	11.5419
1046.2	0.978149
1049.09	16.7373
1051.99	50.0326
1054.88	1.06799
1057.77	9.2417
1060.66	30.8114
1063.56	18.0914
1066.45	4.34473
1069.34	41.9823
1072.24	34.9822
1075.13	5.68372
1078.02	3.98645
1080.91	29.0906
1083.81	19.4252
1086.7	18.7826
1089.59	10.098
1092.48	10.0523
1095.38	18.4755
1098.27	11.1938
1101.16	26.9883
1104.06	22.5129
1106.95	19.5779
1109.84	29.6143
1112.73	22.9647
1115.63	6.58264
1118.52	31.5337
1121.41	22.3523
1124.3	23.3575
1127.2	27.6937
1130.09	16.6384
1132.98	40.6981
1135.88	6.38098
1138.77	15.2459
1141.66	29.7147
1144.55	48.6821
1147.45	42.1007
1150.34	44.3955
1153.23	46.3942
1156.12	33.5331
1159.02	23.8987
1161.91	50.2222
1164.8	34.3728
1167.69	17.5801
1170.59	27.223
1173.48	17.9145
1176.37	31.0559
1179.27	35.6163
1182.16	13.1476
1185.05	63.6987
1187.94	37.1896
1190.84	7.63879
1193.73	24.6108
1196.62	31.217
1199.51	37.0275
1202.41	41.7891
1205.3	50.6918
1208.19	35.014
1211.09	38.0185
1213.98	47.4492
1216.87	35.6503
1219.76	48.0708
1222.66	11.6926
1225.55	24.0109
1228.44	1.1604
1231.33	42.2455
1234.23	47.3014
1237.12	43.394
1240.01	42.5325
1242.9	0
