Measurement: Raman, 785 nm, unoriented, Raman Data Processed
Mineral: Gageite
Rruff sample: R070471
Ideal chemistry: Mn^2+^_21_Si_8_O_27_(OH)_20_
Locality: Wessels mine, Hotazel, Kalahari manganese field, Northern Cape Province, South Africa
Source: Michael Scott
Description: Matted aggregates of tan colored fibers associated with calcite
Raman shift (cm-1)	intensity
131.524	0
134.417	20.3514
137.309	12.1341
140.202	39.1472
143.095	39.2707
145.987	128.065
148.88	226.492
151.773	296.633
154.665	329.775
157.558	282.079
160.451	288.704
163.344	242.844
166.236	230.936
169.129	170.724
172.022	151.017
174.914	104.88
177.807	97.6824
180.7	117.885
183.592	100.355
186.485	100.724
189.378	65.6638
192.27	58.221
195.163	74.7768
198.056	59.9736
200.949	50.4071
203.841	39.2401
206.734	9.02887
209.627	23.8598
212.519	8.95843
215.412	22.2835
218.305	18.0087
221.197	13.4662
224.09	0.386353
226.983	14.6923
229.876	19.7673
232.768	1.59491
235.661	0.399475
238.554	7.40863
241.446	6.78424
244.339	5.83215
247.232	10.4829
250.125	10.726
253.017	27.5973
255.91	23.158
258.803	8.66608
261.695	4.46429
264.588	25.5842
267.481	29.1204
270.373	17.6251
273.266	13.7992
276.159	10.6208
279.051	16.8935
281.944	31.8776
284.837	15.9308
287.73	34.9021
290.622	55.8445
293.515	2.3739
296.408	16.0621
299.3	2.7019
302.193	21.8995
305.086	38.2389
307.978	15.6356
310.871	25.6085
313.764	2.59216
316.657	10.9907
319.549	20.0759
322.442	32.0076
325.335	25.8187
328.227	14.9753
331.12	5.17084
334.013	18.5178
336.906	17.3674
339.798	5.54944
342.691	12.0591
345.584	35.4132
348.476	20.0276
351.369	19.3365
354.262	27.1912
357.154	10.8113
360.047	28.5187
362.94	7.5733
365.832	18.1598
368.725	26.4293
371.618	32.7458
374.511	16.5005
377.403	5.80603
380.296	37.5933
383.189	36.5807
386.081	25.4072
388.974	7.01807
391.867	16.0311
394.76	6.33667
397.652	17.5675
400.545	37.1504
403.438	29.3165
406.33	24.7985
409.223	10.421
412.116	45.5857
415.008	12.6016
417.901	27.2892
420.794	24.6737
423.687	21.5144
426.579	21.0798
429.472	9.01471
432.365	12.6443
435.257	4.77588
438.15	2.66553
441.043	0.294739
443.935	19.4725
446.828	9.38824
449.721	6.38391
452.613	0.029358
455.506	17.7389
458.399	13.4311
461.292	7.52875
464.184	33.4867
467.077	16.8658
469.97	5.07989
472.862	7.43604
475.755	4.1499
478.648	17.5735
481.541	13.1274
484.433	36.5553
487.326	21.9571
490.219	10.0198
493.111	14.9844
496.004	15.7013
498.897	35.2159
501.789	24.8198
504.682	20.811
507.575	29.1532
510.467	47.7863
513.36	51.5287
516.253	69.6654
519.146	48.7158
522.038	96.0569
524.931	82.9329
527.824	80.4365
530.716	90.6687
533.609	71.9013
536.502	72.6936
539.394	59.0118
542.287	67.3663
545.18	60.4763
548.073	44.2823
550.965	57.2863
553.858	49.7153
556.751	57.0325
559.643	62.5523
562.536	64.701
565.429	66.5292
568.322	32.2398
571.214	64.2304
574.107	51.5045
577	36.9809
579.892	43.5552
582.785	35.8991
585.678	31.1773
588.57	17.3804
591.463	25.815
594.356	17.9639
597.249	45.317
600.141	26.7565
603.034	45.9127
605.927	30.7299
608.819	4.72858
611.712	24.9515
614.605	40.2374
617.497	26.9624
620.39	25.8154
623.283	1.36713
626.176	26.7364
629.068	6.30719
631.961	38.8635
634.854	5.58575
637.746	9.85919
640.639	16.5946
643.532	14.2936
646.424	23.6712
649.317	13.0589
652.21	17.5006
655.102	13.2
657.995	2.73498
660.888	21.0677
663.781	19.326
666.673	15.1811
669.566	27.8108
672.459	0.3573
675.351	9.65662
678.244	1.54224
681.137	3.46051
684.029	16.8056
686.922	25.0355
689.815	14.6886
692.708	1.8472
695.6	2.34399
698.493	11.9456
701.386	11.3943
704.278	1.34445
707.171	12.9465
710.064	14.6835
712.957	15.9543
715.849	8.58432
718.742	13.1361
721.635	5.3533
724.527	14.8628
727.42	20.1776
730.313	10.4234
733.205	11.5013
736.098	25.9152
738.991	30.0317
741.884	8.69803
744.776	6.22958
747.669	4.20398
750.562	13.9858
753.454	0.173035
756.347	17.7398
759.24	15.2068
762.132	15.0946
765.025	13.2589
767.918	9.83795
770.811	8.6619
773.703	10.4552
776.596	1.64752
779.489	23.489
782.381	28.6478
785.274	22.4651
788.167	9.78043
791.059	17.7771
793.952	22.7565
796.845	20.1902
799.737	17.0893
802.63	14.0676
805.523	19.8946
808.416	20.2032
811.308	1.32373
814.201	26.2879
817.094	16.7838
819.986	22.8707
822.879	10.0202
825.772	12.9207
828.664	15.2839
831.557	0.423737
834.45	9.01947
837.343	6.0546
840.235	14.84
843.128	20.2734
846.021	2.34634
848.913	24.8565
851.806	17.1957
854.699	8.82678
857.591	19.7822
860.484	9.19308
863.377	33.4131
866.27	29.576
869.162	22.9098
872.055	13.5952
874.948	16.6239
877.84	3.08911
880.733	15.4495
883.626	9.60599
886.519	11.3943
889.411	12.0277
892.304	12.1838
895.197	0.694916
898.089	14.1594
900.982	17.8175
903.875	24.3189
906.767	18.1067
909.66	22.7245
912.553	5.49142
915.446	7.06253
918.338	16.3246
921.231	15.9658
924.124	20.5411
927.016	10.946
929.909	21.5828
932.802	22.345
935.694	5.25876
938.587	14.9098
941.48	7.93066
944.372	10.8876
947.265	1.53189
950.158	11.1649
953.051	17.3081
955.943	5.20956
958.836	17.5502
961.729	17.3047
964.621	15.5181
967.514	14.2741
970.407	22.9262
973.299	17.5277
976.192	24.692
979.085	16.1938
981.978	33.8232
984.87	36.1435
987.763	6.86166
990.656	9.34415
993.548	11.6939
996.441	4.25589
999.334	14.3657
1002.23	41.1352
1005.12	26.3614
1008.01	9.77499
1010.9	10.9712
1013.8	7.00983
1016.69	7.59909
1019.58	22.5348
1022.48	1.52203
1025.37	23.4051
1028.26	20.4404
1031.15	25.4454
1034.05	0.189789
1036.94	12.1179
1039.83	20.1459
1042.72	7.37659
1045.62	14.4324
1048.51	7.04138
1051.4	16.7108
1054.3	24.6498
1057.19	3.01138
1060.08	25.7981
1062.97	16.6095
1065.87	1.62173
1068.76	27.0605
1071.65	5.75491
1074.54	13.8035
1077.44	31.8405
1080.33	7.08487
1083.22	4.15182
1086.12	21.1693
1089.01	11.9257
1091.9	14.3771
1094.79	10.8178
1097.69	30.455
1100.58	21.0758
1103.47	5.0166
1106.36	15.4921
1109.26	3.97336
1112.15	10.8469
1115.04	19.0101
1117.93	24.5446
1120.83	20.263
1123.72	8.35928
1126.61	18.0082
1129.51	8.57696
1132.4	18.2602
1135.29	13.8376
1138.18	11.753
1141.08	20.4531
1143.97	14.426
1146.86	11.0039
1149.75	9.46149
1152.65	7.00012
1155.54	11.7093
1158.43	15.3031
1161.33	21.106
1164.22	13.5261
1167.11	0.880981
1170	18.8901
1172.9	4.23334
1175.79	5.83707
1178.68	6.79309
1181.57	27.6151
1184.47	9.08499
1187.36	7.99692
1190.25	21.3979
1193.14	0.487793
1196.04	16.8762
1198.93	5.64966
1201.82	24.5296
1204.71	17.9854
1207.61	4.40909
1210.5	5.17279
1213.39	15.7611
1216.29	31.2249
1219.18	18.7439
1222.07	21.2176
1224.96	9.99875
1227.86	6.99674
1230.75	12.7824
1233.64	17.8065
1236.54	9.59616
1239.43	13.7836
1242.32	16.8572
1245.21	16.3821
1248.11	1.55368
1251	28.2178
1253.89	12.9424
1256.78	11.0377
1259.68	18.7634
1262.57	16.0236
1265.46	11.1823
1268.36	12.619
