Measurement: Raman, 532 nm, unoriented, Raman Data Processed
Mineral: Gageite
Rruff sample: R070471
Ideal chemistry: Mn^2+^_21_Si_8_O_27_(OH)_20_
Locality: Wessels mine, Hotazel, Kalahari manganese field, Northern Cape Province, South Africa
Source: Michael Scott
Description: Matted aggregates of tan colored fibers associated with calcite
Raman shift (cm-1)	intensity
111.586	0
114.961	33.0363
118.336	54.3414
121.71	39.1379
125.085	3.75732
128.46	55.8261
131.835	53.3286
135.21	101.59
138.584	149.686
141.959	192.881
145.334	175.262
148.709	199.487
152.084	258.402
155.459	265.408
158.833	257.512
162.208	182.745
165.583	157.738
168.958	185.406
172.333	141.728
175.708	141.543
179.082	161.427
182.457	124.172
185.832	89.7857
189.207	79.2368
192.582	65.597
195.956	57.9887
199.331	64.1402
202.706	39.3777
206.081	42.6117
209.456	3.99841
212.831	40.8779
216.205	29.3876
219.58	32.3842
222.955	6.2265
226.33	16.2764
229.705	6.77692
233.079	3.34033
236.454	21.5662
239.829	9.57721
243.204	12.2447
246.579	5.9762
249.953	4.75617
253.328	7.17316
256.703	6.05939
260.078	5.51556
263.453	7.87134
266.828	6.60938
270.202	10.6926
273.577	3.70215
276.952	5.88696
280.327	25.8541
283.702	32.796
287.077	10.6229
290.451	17.1101
293.826	16.2479
297.201	14.9313
300.576	26.9647
303.951	4.98425
307.325	33.0123
310.7	14.188
314.075	35.1919
317.45	30.5073
320.825	20.0102
324.2	6.83594
327.574	27.4199
330.949	19.5457
334.324	22.3185
337.699	22.958
341.074	9.38046
344.448	27.7501
347.823	14.7317
351.198	5.68106
354.573	2.40875
357.948	40.6402
361.322	7.85288
364.697	1.77301
368.072	11.3328
371.447	25.3107
374.822	4.76312
378.197	17.9456
381.571	16.6495
384.946	22.6196
388.321	19.3759
391.696	30.201
395.071	4.37494
398.445	0.18988
401.82	33.5366
405.195	20.6883
408.57	18.4006
411.945	36.6467
415.32	13.081
418.694	3.99368
422.069	31.2969
425.444	0.275116
428.819	10.5895
432.194	20.3697
435.568	29.1976
438.943	8.16754
442.318	6.48135
445.693	25.2977
449.068	8.97986
452.442	50.0514
455.817	19.5858
459.192	29.9603
462.567	0.206177
465.942	11.8467
469.317	5.39648
472.691	4.42847
476.066	5.86175
479.441	29.6503
482.816	6.89978
486.191	19.8158
489.565	13.1756
492.94	7.21973
496.315	16.0464
499.69	23.3758
503.065	12.3422
506.44	36.0881
509.814	27.1933
513.189	38.0951
516.564	61.0759
519.939	73.7193
523.314	59.4695
526.688	77.8334
530.063	64.1154
533.438	82.0824
536.813	53.9743
540.188	42.3062
543.563	73.4429
546.937	54.6729
550.312	55.062
553.687	73.3247
557.062	56.1529
560.437	38.2358
563.812	70.2695
567.186	47.5351
570.561	73.9236
573.936	77.2261
577.311	73.3625
580.686	58.3334
584.06	49.1215
587.435	36.0698
590.81	28.4347
594.185	44.7347
597.56	11.9322
600.934	17.3889
604.309	38.9852
607.684	22.9236
611.059	27.549
614.434	9.40442
617.809	24.168
621.183	5.73309
624.558	28.385
627.933	33.5319
631.308	0.233459
634.683	5.14282
638.058	30.0165
641.432	6.3411
644.807	12.829
648.182	13.4503
651.557	6.32532
654.932	5.94977
658.306	6.83578
661.681	12.9522
665.056	6.62744
668.431	15.5011
671.806	12.9806
675.181	21.827
678.555	14.808
681.93	8.30987
685.305	8.56644
688.68	11.8314
692.055	9.91928
695.429	28.6309
698.804	7.22903
702.179	11.0561
705.554	14.7474
708.929	9.70721
712.303	5.73001
715.678	10.8238
719.053	17.9487
722.428	28.3766
725.803	13.7098
729.178	23.9665
732.552	7.06531
735.927	11.6749
739.302	7.16821
742.677	18.3849
746.052	15.0332
749.427	7.67358
752.801	0.966614
756.176	20.6165
759.551	10.4405
762.926	1.24814
766.301	4.37189
769.675	24.3943
773.05	10.8948
776.425	16.5859
779.8	10.2304
783.175	23.9453
786.549	6.54575
789.924	35.9929
793.299	19.5971
796.674	25.0324
800.049	29.3451
803.423	1.96225
806.798	13.4525
810.173	22.2275
813.548	5.78989
816.923	26.0123
820.298	30.7637
823.672	3.711
827.047	14.4663
830.422	4.30865
833.797	22.143
837.172	29.8125
840.547	9.25479
843.921	12.5821
847.296	20.3476
850.671	11.7017
854.046	13.1905
857.421	12.0164
860.795	6.47665
864.17	19.998
867.545	17.549
870.92	24.3731
874.295	14.4894
877.669	27.9301
881.044	25.7221
884.419	17.4605
887.794	16.7039
891.169	8.5292
894.544	9.69064
897.918	11.482
901.293	5.51999
904.668	15.503
908.043	12.5717
911.418	10.2679
914.793	2.9259
918.167	12.3153
921.542	21.5149
924.917	1.58285
928.292	9.95224
931.667	11.9482
935.041	1.63599
938.416	10.5885
941.791	10.2233
945.166	11.2255
948.541	26.4707
951.915	25.7077
955.29	14.2081
958.665	11.0609
962.04	4.60706
965.415	8.73871
968.79	4.19904
972.164	7.43698
975.539	12.8804
978.914	18.5826
982.289	23.7834
985.664	20.344
989.038	10.4664
992.413	28.1033
995.788	14.1256
999.163	26.2975
1002.54	8.39414
1005.91	20.4904
1009.29	13.6896
1012.66	20.3526
1016.04	7.26071
1019.41	22.4536
1022.79	22.2617
1026.16	19.1803
1029.54	32.8174
1032.91	23.9236
1036.29	0.111237
1039.66	4.92108
1043.04	21.1419
1046.41	8.03351
1049.79	20.6163
1053.16	2.38184
1056.54	5.47003
1059.91	12.396
1063.28	23.9793
1066.66	9.85113
1070.03	20.6093
1073.41	10.4784
1076.78	20.1001
1080.16	5.12833
1083.53	16.4763
1086.91	17.8212
1090.28	11.1533
1093.66	13.5197
1097.03	4.08612
1100.41	16.6081
1103.78	19.1351
1107.16	13.1781
1110.53	23.9133
1113.91	27.0877
1117.28	3.56033
1120.66	11.1504
1124.03	4.65411
1127.41	9.87357
1130.78	4.41296
1134.16	22.5742
1137.53	2.15936
1140.9	14.878
1144.28	16.0832
1147.65	17.048
1151.03	9.13657
1154.4	10.4738
1157.78	12.0545
1161.15	14.3518
1164.53	23.3772
1167.9	3.73798
1171.28	21.103
1174.65	14.4398
1178.03	7.34097
1181.4	5.91812
1184.78	13.2418
1188.15	3.45807
1191.53	13.6631
1194.9	17.0175
1198.28	20.9313
1201.65	5.57654
1205.03	1.82776
1208.4	12.3388
1211.78	22.1575
1215.15	26.1934
1218.53	29.4587
1221.9	24.3065
1225.28	1.168
1228.65	19.9843
1232.03	10.0633
1235.4	13.9333
1238.78	32.3404
1242.15	10.4594
1245.53	10.5023
1248.9	15.8081
1252.27	8.39609
1255.65	0.55481
1259.02	30.0799
1262.4	10.3831
1265.77	2.45184
1269.15	21.3445
1272.52	15.5683
1275.9	8.65408
1279.27	7.59015
1282.65	2.13715
1286.02	20.3008
1289.4	14.6649
