Measurement: Raman, 532 nm, unoriented, Raman Data Processed
Mineral: Galena
Rruff sample: R060187
Ideal chemistry: Pb^2+^S^2-^
Locality: Polaris mine, Little Cornwallis Island, Northwest Territories, Canada
Source: Lloyd Twaites
Description: Lead-gray metallic cubo-octahedra
Measured chemistry: Pb_1.00_S_1.00_
Raman shift (cm-1)	intensity
121.601	0
124.976	0.286403
128.351	1.09177
131.726	0.331483
135.101	3.7062
138.475	9.36712
141.85	5.71587
145.225	5.67827
148.6	7.30393
151.975	9.63632
155.35	10.7472
158.724	7.56098
162.099	7.63863
165.474	7.4778
168.849	6.67948
172.224	6.25764
175.598	5.41093
178.973	5.3664
182.348	4.19969
185.723	3.2514
189.098	3.50945
192.472	3.11305
195.847	2.58324
199.222	2.94647
202.597	2.3509
205.972	2.13269
209.347	1.55281
212.721	1.39325
216.096	1.02955
219.471	0.733997
222.846	1.06137
226.221	0.739063
229.596	0.307492
232.97	0.374149
236.345	0.757657
239.72	0.079351
243.095	0.06936
246.47	0.102473
249.845	0.022587
253.219	0.244013
256.594	0.410421
259.969	0.348839
263.344	0.488142
266.719	0.091143
270.093	0.605491
273.468	0.299259
276.843	0.661879
280.218	0.55098
283.593	0.412439
286.967	0.417185
290.342	0.163295
293.717	0.20789
297.092	0.214822
300.467	0.490436
303.842	0.266909
307.216	0.404749
310.591	0.466632
313.966	0.625495
317.341	0.891122
320.716	0.300965
324.091	0.678102
327.465	1.12103
330.84	0.49178
334.215	0.55784
337.59	0.33817
340.965	0.449312
344.339	0.185023
347.714	1.05986
351.089	1.01297
354.464	0.049004
357.839	0.744812
361.214	0.266104
364.588	0.242273
367.963	0.966423
371.338	0.197944
374.713	0.185726
378.088	0.05193
381.462	0.119245
384.837	0.996691
388.212	0.093141
391.587	0.499252
394.962	0.004942
398.337	0.87755
401.712	0.175915
405.086	0.246687
408.461	0.074076
411.836	0.331564
415.211	0.849733
418.586	0.132034
421.96	0.598715
425.335	0.062665
428.71	0.682051
432.085	0.323261
435.46	1.21763
438.834	1.30564
442.209	0.512708
445.584	0.517067
448.959	0.411012
452.334	1.22245
455.709	1.30311
459.083	0.701214
462.458	1.39865
465.833	1.89104
469.208	1.31388
472.583	0.499643
475.957	0.380684
479.332	0.206
482.707	0.990612
486.082	0.58178
489.457	0.832295
492.832	0.580599
496.207	0.52509
499.581	0.276647
502.956	0.593253
506.331	0.088061
509.706	0.194559
513.081	0.034233
516.455	0.106522
519.83	0.088621
523.205	0.14867
526.58	0.51549
529.955	0.034642
533.33	0.057709
536.704	0.83515
540.079	0.288771
543.454	0.653869
546.829	0.305193
550.204	0.169276
553.578	0.25405
556.953	0.713935
560.328	0.277833
563.703	0.40469
567.078	0.603866
570.452	0.671881
573.827	0.256821
577.202	0.51206
580.577	0.70578
583.952	0.775721
587.327	0.041817
590.702	0.280933
594.076	0.000818
597.451	0.261415
600.826	0.771572
604.201	0.779666
607.576	0.059934
610.95	0.110321
614.325	0.659348
617.7	0.412466
621.075	0.74412
624.45	0.5414
627.824	0.088022
631.199	0.211938
634.574	0.444909
637.949	1.32794
641.324	0.196198
644.699	1.12558
648.073	0.792639
651.448	0.840006
654.823	0.354692
658.198	0.506215
661.573	1.06078
664.947	0.852497
668.322	0.158307
671.697	0.950996
675.072	1.02055
678.447	0.934503
681.822	0.479034
685.197	0.199313
688.571	0.381249
691.946	0.193666
695.321	0.919296
698.696	0.471797
702.071	0.111148
705.445	0.033855
708.82	0.999358
712.195	0.571645
715.57	0.317733
718.945	0.342503
722.319	0.166006
725.694	0.035839
729.069	0.452013
732.444	0.434572
735.819	0.358993
739.194	0.396815
742.568	0.443344
745.943	0.041687
749.318	0.014718
752.693	0.299988
756.068	0.242348
759.442	0.061777
762.817	0.018413
766.192	0.240359
769.567	0.118913
772.942	0.002325
776.317	0.36918
779.692	0.156384
783.066	0.082444
786.441	0.362827
789.816	0.841621
793.191	0.06971
796.566	0.461965
799.94	0.442909
803.315	1.30415
806.69	0.278419
810.065	0.882452
813.44	1.17673
816.814	0.441317
820.189	0.822501
823.564	0.959197
826.939	0.76924
830.314	1.53643
833.689	0.918011
837.063	1.87234
840.438	1.35021
843.813	1.10786
847.188	0.806557
850.563	1.0915
853.938	2.07656
857.312	1.56765
860.687	1.07375
864.062	0.967631
867.437	0.986647
870.812	0.847377
874.187	0.762911
877.561	1.09066
880.936	1.14084
884.311	1.1654
887.686	1.14932
891.061	0.77033
894.435	0.021841
897.81	0.756104
901.185	0.71879
904.56	0.212133
907.935	0.405775
911.309	0.124971
914.684	0.189903
918.059	0.015095
921.434	0.233909
924.809	0.114382
928.184	0.5636
931.558	0.106139
934.933	0.502808
938.308	0.062374
941.683	0.675104
945.058	0.725477
948.433	0.500062
951.807	0.544245
955.182	0.446755
958.557	0.00561
961.932	0.741574
965.307	0.521826
968.682	0.378636
972.056	0.053465
975.431	0.020648
978.806	0.018473
982.181	0.023391
985.556	0.45988
988.93	0.631322
992.305	0.879098
995.68	0.50088
999.055	0.061626
1002.43	0.394813
1005.8	0.133167
1009.18	0.345825
1012.55	0.18004
1015.93	0.13857
1019.3	0.748447
1022.68	1.06823
1026.05	0.932054
1029.43	0.839373
1032.8	0.950775
1036.18	1.07615
1039.55	0.709171
1042.93	0.774311
1046.3	0.553386
1049.68	1.37445
1053.05	1.1864
1056.43	0.644402
1059.8	0.392391
1063.18	0.480087
1066.55	0.638232
1069.93	0.077814
1073.3	0.288498
1076.68	1.02867
1080.05	0.241154
1083.42	0.445033
1086.8	0.045403
1090.17	0.625795
1093.55	0.287936
1096.92	0.912484
1100.3	0.358886
1103.67	0.272488
1107.05	0.606346
1110.42	0.600867
1113.8	0.519309
1117.17	0.659587
1120.55	0.727303
1123.92	0.51899
1127.3	0.219224
1130.67	0.588011
1134.05	0.685667
1137.42	0.357764
1140.8	0.094431
1144.17	0.486037
1147.55	0.23583
1150.92	0.431937
1154.3	0.105762
1157.67	0.8795
1161.05	0.013861
1164.42	0.367876
1167.8	0.52124
1171.17	0.450532
1174.55	0.564135
1177.92	0.5862
1181.3	0.300955
1184.67	0.674017
1188.05	0.553144
1191.42	0.228021
1194.79	0.119115
1198.17	0.606536
1201.54	0.714899
1204.92	0.948732
1208.29	0.676566
1211.67	0.074594
1215.04	0.052282
1218.42	0.703145
1221.79	0.89462
1225.17	0.482269
1228.54	0.107337
1231.92	0.072053
1235.29	0.623532
1238.67	0.36425
1242.04	0.831096
1245.42	0.723681
1248.79	0.075733
1252.17	0.251981
1255.54	0.721081
1258.92	1.20096
1262.29	0.549926
1265.67	0.007015
1269.04	0.812555
1272.41	0.398797
1275.79	0.130548
1279.16	0.591177
1282.54	0.477464
1285.91	0.326241
1289.29	0.382773
1292.66	0.814738
1296.04	0.579321
1299.41	0.327445
