Measurement: Raman, 780 nm, unoriented, Raman Data Processed
Mineral: Galena
Rruff sample: R060187
Ideal chemistry: Pb^2+^S^2-^
Locality: Polaris mine, Little Cornwallis Island, Northwest Territories, Canada
Source: Lloyd Twaites
Description: Lead-gray metallic cubo-octahedra
Measured chemistry: Pb_1.00_S_1.00_
Raman shift (cm-1)	intensity
120.47	0
123.845	5.71971
127.22	2.3708
130.595	4.03561
133.97	0.534683
137.344	3.81562
140.719	3.71291
144.094	2.4531
147.469	1.4876
150.844	0.693366
154.218	0.044058
157.593	0.371241
160.968	0.446024
164.343	0.084106
167.718	0.681675
171.093	0.465171
174.467	0.637967
177.842	0.806137
181.217	0.791733
184.592	1.62769
187.966	1.64162
191.341	2.29018
194.716	2.63436
198.091	2.27176
201.466	2.95969
204.841	2.92353
208.215	2.85749
211.59	2.84563
214.965	3.29772
218.34	2.64835
221.715	2.39001
225.089	2.61461
228.464	3.44574
231.839	3.57699
235.214	3.51651
238.589	3.91012
241.964	4.11993
245.338	4.18753
248.713	3.44288
252.088	1.82828
255.463	1.12575
258.838	0.989284
262.212	0.542165
265.587	0.380892
268.962	0.392924
272.337	0.277005
275.712	0.004112
279.087	0.372257
282.461	0.43106
285.836	0.173401
289.211	0.220875
292.586	0.029721
295.961	0.19375
299.335	0.050218
302.71	0.166725
306.085	0.186315
309.46	0.463791
312.835	0.482304
316.209	0.631291
319.584	0.514945
322.959	0.601917
326.334	0.501348
329.709	0.899344
333.084	0.371831
336.458	0.294612
339.833	0.387256
343.208	0.695374
346.583	0.036981
349.958	0.750462
353.332	0.660639
356.707	0.023739
360.082	0.586953
363.457	0.145246
366.832	0.402319
370.207	0.517952
373.581	0.559126
376.956	0.272965
380.331	0.170688
383.706	0.083125
387.081	0.616369
390.455	0.155018
393.83	0.710932
397.205	0.09418
400.58	1.08388
403.955	0.342362
407.329	0.889524
410.704	0.424362
414.079	0.297145
417.454	0.473545
420.829	0.157664
424.204	0.748938
427.578	0.605275
430.953	0.381162
434.328	0.529775
437.703	0.618182
441.078	0.794995
444.452	0.607013
447.827	0.893551
451.202	0.569542
454.577	0.346931
457.952	0.615287
461.327	0.439656
464.701	0.400742
468.076	0.494418
471.451	0.917767
474.826	0.727156
478.201	0.607476
481.575	1.01008
484.95	0.646693
488.325	0.822629
491.7	0.428207
495.075	0.372662
498.45	0.735607
501.824	0.460521
505.199	0.387001
508.574	0.366146
511.949	0.251823
515.323	0.294107
518.698	0.32713
522.073	0.22497
525.448	0.134414
528.823	0.099524
532.198	0.232574
535.572	0.504686
538.947	0.843504
542.322	0.892375
545.697	1.17368
549.072	1.10587
552.447	1.85008
555.821	1.27827
559.196	1.09274
562.571	0.343182
565.946	0.875771
569.321	0.601721
572.695	0.037584
576.07	0.159282
579.445	0.620879
582.82	0.436989
586.195	0.056755
589.569	0.179266
592.944	0.287642
596.319	0.643276
599.694	0.906001
603.069	0.733059
606.443	0.101655
609.818	0.507259
613.193	0.674579
616.568	0.583635
619.943	0.61197
623.318	1.06124
626.692	0.042129
630.067	0.187553
633.442	0.206172
636.817	1.03486
640.192	0.042979
643.567	0.927205
646.941	0.491602
650.316	0.590917
653.691	0.573822
657.066	0.363371
660.441	0.626244
663.815	0.807297
667.19	0.420584
670.565	0.741546
673.94	0.74391
677.315	0.593119
680.689	0.639134
684.064	0.103735
687.439	0.758972
690.814	0.542537
694.189	0.105614
697.563	0.284229
700.938	0.1396
704.313	0.152143
707.688	0.155652
711.063	0.15354
714.438	0.10393
717.812	0.024094
721.187	0.037396
724.562	0.235904
727.937	0.517306
731.312	0.399227
734.687	0.398412
738.061	0.358349
741.436	0.170594
744.811	0.49485
748.186	0.837926
751.561	0.544153
754.935	0.0082
758.31	0.225286
761.685	0.522085
765.06	0.517864
768.435	0.347527
771.809	0.281121
775.184	0.170199
778.559	0.391487
781.934	0.518013
785.309	0.526355
788.683	0.887135
792.058	0.49278
795.433	0.772767
798.808	0.991186
802.183	0.979406
805.558	1.07348
808.932	0.75935
812.307	0.429317
815.682	0.924613
819.057	1.00713
822.432	0.919299
825.807	1.11851
829.181	1.21018
832.556	1.57306
835.931	1.28443
839.306	1.05968
842.681	1.14694
846.055	0.911196
849.43	1.58767
852.805	1.17108
856.18	1.48324
859.555	1.10596
862.929	1.13444
866.304	1.02582
869.679	0.842754
873.054	0.855815
876.429	0.933243
879.803	1.02177
883.178	1.47498
886.553	0.713656
889.928	0.197125
893.303	0.411519
896.678	0.945521
900.052	0.10467
903.427	0.009693
906.802	0.333281
910.177	0.416148
913.552	0.640069
916.927	0.225371
920.301	0.021952
923.676	0.03552
927.051	0.088562
930.426	0.310347
933.801	0.619176
937.175	0.107586
940.55	0.193772
943.925	0.274824
947.3	0.287274
950.675	0.175834
954.049	0.330523
957.424	0.133409
960.799	0.781539
964.174	0.384162
967.549	0.161672
970.923	0.003995
974.298	0.392276
977.673	0.776807
981.048	0.594024
984.423	0.450274
987.798	0.551591
991.172	0.044572
994.547	0.604309
997.922	0.436743
1001.3	0.881883
1004.67	0.24414
1008.05	0.210171
1011.42	0.473191
1014.8	0.254081
1018.17	0.335406
1021.55	0.259628
1024.92	1.00894
1028.3	0.228341
1031.67	0.504453
1035.05	0.352395
1038.42	1.18014
1041.8	0.713203
1045.17	0.57891
1048.54	0.359334
1051.92	0.772124
1055.29	0.895892
1058.67	0.46286
1062.04	0.487225
1065.42	0.415942
1068.79	0.562771
1072.17	0.660155
1075.54	0.686422
1078.92	0.116776
1082.29	0.344431
1085.67	0.769852
1089.04	0.5001
1092.42	0.553887
1095.79	0.33118
1099.17	0.336538
1102.54	0.514824
1105.92	0.768203
1109.29	0.689548
1112.67	0.154233
1116.04	0.395515
1119.41	0.391578
1122.79	0.762263
1126.16	0.286846
1129.54	0.27948
1132.91	0.365845
1136.29	0.500119
1139.66	0.601191
1143.04	0.227397
1146.41	0.529521
1149.79	0.240233
1153.16	0.728153
1156.54	0.127507
1159.91	0.728675
1163.29	0.077884
1166.66	0.418734
1170.04	0.639472
1173.41	0.671095
1176.79	0.395335
1180.16	0.744957
1183.54	0.495396
1186.91	0.589769
1190.29	0.959515
1193.66	0.399336
1197.04	0.187881
1200.41	0.336629
1203.79	0.435934
1207.16	0.322968
1210.54	0.856318
1213.91	0.893473
1217.29	0.790862
1220.66	0.445767
1224.04	0.442693
1227.41	1.01608
1230.78	0.62873
1234.16	0.11307
1237.53	0.302689
1240.91	0.821759
1244.28	0.951282
1247.66	0.935653
1251.03	0.389402
1254.41	0.225272
1257.78	0.797928
1261.16	0.376846
1264.53	0.18
1267.91	0.45274
1271.28	0.464249
1274.66	1.08898
1278.03	0.305821
1281.41	0.105358
1284.78	0.447217
