Measurement: Raman, 780 nm, unoriented, Raman Data Processed
Mineral: Garnet
Rruff sample: R141191
Locality: Synthetic
Source: Yuntao Wu
Description: Yellow vitreous fragment. Ideal formula: Gd3 Al2 Ga3 O12. Synthesized at 1800 degrees C.
Raman shift (cm-1)	intensity
95.2962	0
98.671	7.95508
102.046	55.9062
105.421	204.812
108.796	396.623
112.17	352.453
115.545	299.293
118.92	393.045
122.295	324.883
125.67	331.019
129.044	333.758
132.419	253.996
135.794	347.215
139.169	457.215
142.544	327.762
145.918	301.906
149.293	399.981
152.668	492.715
156.043	340.609
159.418	195.207
162.792	254.926
166.167	167.863
169.542	126.594
172.917	183.004
176.292	204.684
179.667	261.926
183.041	204.18
186.416	152.797
189.791	4.92969
193.166	0.882813
196.541	115.883
199.916	129.5
203.29	224.027
206.665	124.938
210.04	216.809
213.415	134
216.79	78.9453
220.164	72.4531
223.539	220.387
226.914	70.3242
230.289	88.375
233.664	115.93
237.038	102.246
240.413	86.8906
243.788	145.121
247.163	82.082
250.538	100.199
253.913	29.9766
257.287	75.2617
260.662	49.082
264.037	138.66
267.412	58.9727
270.787	78.9492
274.161	9.39453
277.536	160.106
280.911	4.99609
284.286	90.1602
287.661	169.231
291.036	7.53516
294.41	73.582
297.785	69.4883
301.16	107.856
304.535	42.0078
307.91	171.703
311.284	32.0312
314.659	29.8477
318.034	107.266
321.409	3.10156
324.784	52.543
328.159	25.3477
331.533	86.4688
334.908	62.0469
338.283	49.2969
341.658	47.0781
345.033	29.4297
348.408	203.766
351.782	171.441
355.157	371.227
358.532	327.883
361.907	385.758
365.282	441.047
368.656	371.047
372.031	312.852
375.406	152.481
378.781	169.156
382.156	252.434
385.531	332.039
388.905	72.8789
392.28	207.769
395.655	86.1875
399.03	38.9375
402.405	72.7227
405.779	102.219
409.154	162.328
412.529	55.7695
415.904	51.582
419.279	133.106
422.654	82.0703
426.028	127.035
429.403	101.176
432.778	185.57
436.153	426.828
439.528	405.508
442.902	186.625
446.277	271.727
449.652	200.324
453.027	252.703
456.402	186.398
459.776	143.281
463.151	74.8633
466.526	135.742
469.901	199.477
473.276	154.457
476.651	19.0312
480.025	113.004
483.4	225.883
486.775	131.559
490.15	284.367
493.525	297.434
496.899	222.254
500.274	187.269
503.649	101.805
507.024	326.828
510.399	19.9609
513.774	64.6289
517.148	100.59
520.523	164.352
523.898	265.336
527.273	46.6055
530.648	8.97852
534.022	131.887
537.397	76.7031
540.772	2.99609
544.147	174.982
547.522	55.1738
550.896	116.768
554.271	35.5234
557.646	56.2852
561.021	54.668
564.396	15.0645
567.771	35.5488
571.145	15.6914
574.52	234.518
577.895	104.568
581.27	154.275
584.645	178.092
588.019	170.656
591.394	204.4
594.769	269.094
598.144	126.811
601.519	203.34
604.894	219.068
608.268	129.51
611.643	268.342
615.018	158.103
618.393	206.543
621.768	274.088
625.143	222.543
628.517	199.301
631.892	316.541
635.267	296.299
638.642	287.049
642.017	153.025
645.391	103.019
648.766	246.941
652.141	106.141
655.516	102.398
658.891	123.33
662.265	95.4492
665.64	182.453
669.015	103.227
672.39	27.8789
675.765	72.7617
679.14	124.838
682.514	8.72461
685.889	3.83398
689.264	174.299
692.639	91.2266
696.014	61.459
699.389	64.7148
702.763	49.1738
706.138	49.1641
709.513	181.254
712.888	47.6348
716.263	133.504
719.637	85.5527
723.012	142.852
726.387	87.4258
729.762	95.1758
733.137	163.326
736.511	128.199
739.886	96.2891
743.261	81.2559
746.636	243.082
750.011	172.057
753.386	195.324
756.76	176.529
760.135	80.6191
763.51	108.519
766.885	62.3691
770.26	204.518
773.635	53.1074
777.009	22.9434
780.384	117.328
783.759	151.223
787.134	47.4062
790.509	62.5234
793.883	64.1914
797.258	17.2305
800.633	80.7422
804.008	76.3731
807.383	172.459
810.757	132.881
814.132	177.574
817.507	204.656
820.882	156.096
824.257	129.303
827.631	101.242
831.006	64.5469
834.381	139.69
837.756	220.234
841.131	63.0176
844.506	254.576
847.88	136.719
851.255	126.99
854.63	176.607
858.005	63.123
861.38	13.6484
864.755	18.4316
868.129	92.959
871.504	68.1367
874.879	53.4414
878.254	90.1738
881.629	79.2773
885.003	132.344
888.378	54.6504
891.753	109.688
895.128	36.4434
898.503	4.38281
901.878	29.3711
905.252	137.471
908.627	97.5566
912.002	69.7266
915.377	8.75586
918.752	94.9375
922.126	20.2012
925.501	90.1465
928.876	149.41
932.251	72.7441
935.626	131.133
939	118.416
942.375	93.4922
945.75	22.1113
949.125	73.8027
952.5	153.322
955.875	9.89453
959.249	68.7344
962.624	46.6562
965.999	49.2129
969.374	120.361
972.749	158.617
976.124	17.4473
979.498	108.025
982.873	91.6504
986.248	150.268
989.623	22.623
992.998	94.2383
996.372	76.0176
999.747	159.418
1003.12	139.404
1006.5	29
1009.87	92.582
1013.25	36.4062
1016.62	138.68
1020	60.166
1023.37	77.7422
1026.75	93.2305
1030.12	108.369
1033.49	120.223
1036.87	105.814
1040.24	188.473
1043.62	136.502
1046.99	74.4492
1050.37	71.3184
1053.74	21.3418
1057.12	85.8809
1060.49	107.477
1063.87	1.68945
1067.24	173.332
1070.62	76.9082
1073.99	153.998
1077.37	111.422
1080.74	55.0938
1084.12	59.6387
1087.49	114.809
1090.87	17.4414
1094.24	175.213
1097.62	108.33
1100.99	65.7949
1104.37	72.6602
1107.74	90.0273
1111.12	41.2832
1114.49	108.764
1117.87	3.02344
1121.24	37.6055
1124.62	72.1641
1127.99	44.5508
1131.37	67.6934
1134.74	99.7578
1138.12	72.1133
1141.49	40.5195
1144.86	152.098
1148.24	44.7734
1151.61	153.725
1154.99	83.334
1158.36	74.2051
1161.74	165.434
1165.11	127.141
1168.49	134.816
1171.86	261.969
1175.24	220.873
1178.61	95.7637
1181.99	165.481
1185.36	217.228
1188.74	244.902
1192.11	46.8711
1195.49	181.365
1198.86	216.68
1202.24	70.7891
1205.61	99.4473
1208.99	103.93
1212.36	118.297
1215.73	97.457
1219.11	82.8926
1222.48	28.2969
1225.86	74.4805
1229.23	60.7266
1232.61	93.1934
1235.98	87.2188
1239.36	9.6582
1242.73	79.7461
1246.11	87.1231
1249.48	86.4492
1252.86	22.498
1256.23	89.3613
1259.61	79.1758
1262.98	109.051
1266.36	17.7441
1269.73	89.7402
1273.11	5.28711
1276.48	26.416
1279.86	8.67188
