Measurement: Raman, 780 nm, unoriented, Raman Data Processed
Mineral: Geminite
Rruff sample: R100200
Ideal chemistry: Cu^2+^(As^5+^O_3_OH)H_2_O
Locality: Salsigne mine, Aude France
Source: Bob Jenkins
Description: Pale green chisel-shaped crystals
Raman shift (cm-1)	intensity
172.565	0
175.458	0.43092
178.351	2.28236
181.243	2.36739
184.136	2.60113
187.029	4.86805
189.921	2.6927
192.814	1.35558
195.707	5.59396
198.6	6.79805
201.492	6.61907
204.385	2.81932
207.278	5.44868
210.17	1.54298
213.063	1.20622
215.956	5.14726
218.848	3.70513
221.741	0.161465
224.634	7.10981
227.526	4.89179
230.419	9.31673
233.312	2.44347
236.205	6.13023
239.097	4.6449
241.99	6.67018
244.883	7.22129
247.775	5.19331
250.668	5.57051
253.561	6.50864
256.454	5.53231
259.346	9.19593
262.239	9.41062
265.132	5.67231
268.024	15.481
270.917	5.64462
273.81	8.3179
276.702	4.63365
279.595	9.5358
282.488	0.764004
285.38	7.8702
288.273	4.16058
291.166	3.84352
294.059	2.10782
296.951	8.94049
299.844	3.92993
302.737	10.5539
305.629	5.25188
308.522	7.00399
311.415	9.63362
314.308	9.2358
317.2	8.9906
320.093	6.27592
322.986	10.3819
325.878	5.12743
328.771	7.93374
331.664	11.7503
334.556	6.93061
337.449	0.261089
340.342	12.3443
343.234	8.2356
346.127	9.06861
349.02	0.050545
351.913	2.88578
354.805	6.55689
357.698	5.6793
360.591	12.226
363.483	5.81869
366.376	7.71968
369.269	5.83409
372.161	3.16795
375.054	4.88622
377.947	8.11686
380.839	3.22945
383.732	9.87925
386.625	1.56034
389.518	3.78785
392.41	6.582
395.303	0.230808
398.196	1.60848
401.088	6.09699
403.981	2.75885
406.874	0.596779
409.767	5.00418
412.659	4.19858
415.552	2.57178
418.445	0.783958
421.337	3.84257
424.23	2.48934
427.123	2.79242
430.015	0.177937
432.908	5.80344
435.801	2.22806
438.693	5.19623
441.586	4.78768
444.479	4.87765
447.372	4.76587
450.264	2.06006
453.157	3.80739
456.05	2.50054
458.942	4.78223
461.835	2.34777
464.728	4.76893
467.62	0.310308
470.513	5.96063
473.406	7.95275
476.299	4.77176
479.191	8.72532
482.084	5.12917
484.977	6.68736
487.869	9.06862
490.762	4.13139
493.655	5.41493
496.547	0.688637
499.44	1.64545
502.333	5.9607
505.226	7.60063
508.118	7.04492
511.011	3.07515
513.904	2.83394
516.796	4.30695
519.689	0.027096
522.582	5.29016
525.474	11.0445
528.367	7.25833
531.26	3.59599
534.153	3.73062
537.045	2.86456
539.938	6.23585
542.831	0.502295
545.723	2.45992
548.616	4.18129
551.509	4.15041
554.401	2.66107
557.294	5.9991
560.187	2.20047
563.08	5.03622
565.972	6.48012
568.865	6.25524
571.758	6.52425
574.65	2.79996
577.543	5.08161
580.436	5.74752
583.328	0.612572
586.221	2.12424
589.114	10.0844
592.006	8.65314
594.899	7.33843
597.792	5.52427
600.685	4.76594
603.577	8.43893
606.47	2.65627
609.363	3.68966
612.255	6.79605
615.148	6.23955
618.041	1.86885
620.933	0.210157
623.826	3.86442
626.719	1.157
629.611	3.80547
632.504	0.400509
635.397	6.05925
638.29	5.25195
641.182	0.353622
644.075	1.3262
646.968	4.83731
649.86	2.29151
652.753	5.4126
655.646	1.90516
658.538	5.54522
661.431	6.25011
664.324	5.32534
667.217	6.65341
670.109	6.40904
673.002	6.01852
675.895	5.84735
678.787	5.42889
681.68	1.54281
684.573	2.87268
687.466	2.55327
690.358	1.66732
693.251	0.104256
696.144	2.60264
699.036	0.543234
701.929	1.28248
704.822	2.70152
707.714	4.69588
710.607	3.18148
713.5	1.0444
716.393	0.309145
719.285	5.33243
722.178	3.73049
725.071	2.18818
727.963	5.31792
730.856	2.23007
733.749	1.53083
736.641	4.87529
739.534	3.06085
742.427	2.11735
745.319	5.56223
748.212	1.76481
751.105	1.1983
753.998	10.3786
756.89	3.8712
759.783	4.19902
762.676	5.31234
765.568	5.58386
768.461	0.125942
771.354	0.496674
774.246	1.3542
777.139	9.88569
780.032	4.29461
782.925	4.71363
785.817	5.3354
788.71	9.47402
791.603	8.24628
794.495	7.3351
797.388	8.90198
800.281	4.34331
803.173	8.66261
806.066	6.41536
808.959	5.40807
811.851	5.80551
814.744	2.36364
817.637	4.63954
820.53	5.22409
823.422	0.456821
826.315	3.41168
829.208	7.16894
832.1	2.63258
834.993	2.97966
837.886	7.74687
840.779	12.6098
843.671	6.28395
846.564	11.425
849.457	11.2449
852.349	9.69707
855.242	13.45
858.135	10.8779
861.027	11.3272
863.92	12.0721
866.813	12.035
869.706	15.0907
872.598	16.1556
875.491	11.6556
878.384	16.1152
881.276	16.0537
884.169	18.9679
887.062	16.0873
889.954	12.4436
892.847	13.6667
895.74	13.7629
898.632	10.2084
901.525	13.0015
904.418	11.078
907.311	9.74764
910.203	7.56613
913.096	9.28557
915.989	9.50617
918.881	5.58762
921.774	9.00573
924.667	3.80553
927.559	1.57852
930.452	2.37015
933.345	4.51658
936.237	2.22583
939.13	4.02327
942.023	5.79421
944.916	3.08517
947.808	6.15036
950.701	4.07058
953.594	2.57201
956.486	4.56692
959.379	0.302963
962.272	0.096889
965.164	1.10877
968.057	5.18859
970.95	5.11001
973.843	7.55733
976.735	7.5536
979.628	5.00232
982.521	3.25328
985.413	3.865
988.306	3.84986
991.199	4.99135
994.091	0.098635
996.984	0.022779
999.877	1.28908
1002.77	2.08926
1005.66	3.03241
1008.55	3.22061
1011.45	8.56855
1014.34	4.28113
1017.23	5.20401
1020.13	7.09069
1023.02	5.23423
1025.91	6.27503
1028.8	4.65525
1031.7	3.54401
1034.59	3.10879
1037.48	7.40022
1040.38	3.3169
1043.27	4.68474
1046.16	5.70013
1049.05	4.07087
1051.94	6.01903
1054.84	1.25903
1057.73	6.67118
1060.62	0.491991
1063.52	6.31087
1066.41	3.3769
1069.3	6.84106
1072.19	7.89229
1075.09	0.423784
1077.98	3.16603
1080.87	3.96044
1083.77	2.94234
1086.66	4.62678
1089.55	2.17378
1092.44	4.33091
1095.34	2.4871
1098.23	0.116207
1101.12	5.28759
1104.01	3.7818
1106.91	0.314289
1109.8	2.50573
1112.69	5.69208
1115.59	4.44894
1118.48	3.18559
1121.37	4.31523
1124.26	8.20165
1127.16	1.18157
1130.05	2.12472
1132.94	3.23403
1135.83	5.69049
1138.73	9.35189
1141.62	10.4677
1144.51	1.45039
1147.4	10.7016
1150.3	5.12675
1153.19	0.941563
1156.08	3.08043
1158.97	2.19956
1161.87	4.86184
1164.76	5.14651
1167.65	9.75157
1170.55	6.11382
1173.44	4.48257
1176.33	0.694563
1179.22	8.21057
1182.12	6.13189
1185.01	8.53491
1187.9	7.59927
1190.8	10.3907
1193.69	2.1656
1196.58	8.26299
1199.47	6.48193
1202.37	4.05622
1205.26	1.90759
1208.15	8.32324
1211.04	4.05874
1213.94	3.62668
1216.83	6.59107
1219.72	4.49174
1222.62	8.61421
1225.51	5.97724
1228.4	7.46619
1231.29	2.4888
1234.18	4.44836
1237.08	7.9502
1239.97	5.65754
1242.86	8.29588
1245.76	4.85708
1248.65	6.6916
1251.54	3.98481
1254.43	2.98705
1257.33	5.93778
1260.22	1.08709
1263.11	4.18201
1266.01	4.79897
1268.9	9.49794
1271.79	2.94154
1274.68	1.28323
1277.58	1.2241
1280.47	3.47879
1283.36	1.81495
