Measurement: Raman, 785 nm, unoriented, Raman Data Processed
Mineral: Georgbokiite
Rruff sample: R070111
Ideal chemistry: Cu^2+^_5_O_2_(Se^4+^O_3_)_2_Cl_2_
Locality: Tolbachik Volcano, Kamchatka Peninsula, Russia
Source: Michael Scott
Description: Deep reddish brown polished fragments embedded in epoxy, co-type material
Measured chemistry: light phase: Cu_5.00_O_2_(Se^4+^_1.00_O_3_)_2_Cl_2.00_
Raman shift (cm-1)	intensity
152.166	0
155.058	63.579
157.951	22.4744
160.844	43.7367
163.736	22.0035
166.629	14.5175
169.522	49.4711
172.414	52.6486
175.307	44.6622
178.2	57.8596
181.093	105.436
183.985	126.716
186.878	132.276
189.771	121.312
192.663	94.3306
195.556	58.6892
198.449	36.1545
201.341	63.5878
204.234	72.011
207.127	71.2969
210.019	104.757
212.912	78.9391
215.805	116.671
218.698	93.358
221.59	100.772
224.483	105.296
227.376	77.3268
230.268	38.127
233.161	26.2127
236.054	0.63623
238.946	6.0481
241.839	6.65949
244.732	42.9395
247.625	9.77631
250.517	14.9943
253.41	47.8879
256.303	58.6605
259.195	31.5199
262.088	42.1127
264.981	65.1983
267.873	78.3378
270.766	103.596
273.659	101.614
276.552	122.493
279.444	162.437
282.337	144.875
285.23	149.036
288.122	156.571
291.015	100.12
293.908	76.7634
296.8	45.4572
299.693	58.2668
302.586	19.0721
305.479	3.2309
308.371	17.0588
311.264	8.61713
314.157	7.33185
317.049	6.04956
319.942	31.0833
322.835	39.5535
325.728	20.3217
328.62	51.2566
331.513	35.5704
334.406	70.4462
337.298	4.05859
340.191	39.3165
343.084	43.0283
345.976	0.50647
348.869	10.2646
351.762	11.2812
354.654	38.892
357.547	34.8858
360.44	10.2717
363.333	12.5314
366.225	21.6158
369.118	29.4277
372.011	29.5142
374.903	29.801
377.796	1.56696
380.689	17.7646
383.582	1.26581
386.474	19.712
389.367	5.90863
392.26	12.0576
395.152	18.6103
398.045	20.6103
400.938	45.2351
403.83	49.7461
406.723	34.7047
409.616	57.137
412.509	62.9583
415.401	35.0941
418.294	41.5162
421.187	37.0757
424.079	21.3602
426.972	66.4564
429.865	58.2118
432.757	75.0774
435.65	67.9309
438.543	80.5972
441.435	70.1907
444.328	63.5891
447.221	1.79724
450.114	38.8113
453.006	60.2808
455.899	46.2668
458.792	53.379
461.684	28.4927
464.577	47.6599
467.47	44.1463
470.363	2.58997
473.255	21.1807
476.148	3.15222
479.041	24.6435
481.933	2.64874
484.826	27.8914
487.719	47.1371
490.611	21.0055
493.504	9.88202
496.397	53.1596
499.289	11.4736
502.182	22.2325
505.075	2.34625
507.968	7.78455
510.86	29.7549
513.753	26.4269
516.646	49.51
519.538	9.32721
522.431	2.1416
525.324	42.3729
528.217	31.2266
531.109	27.6025
534.002	17.6868
536.895	40.807
539.787	36.6396
542.68	29.3622
545.573	27.5381
548.466	49.0706
551.358	21.279
554.251	19.7094
557.144	52.8032
560.036	48.0196
562.929	54.5867
565.822	46.5828
568.714	37.9806
571.607	52.1152
574.5	55.2648
577.392	78.8504
580.285	66.0135
583.178	62.7101
586.071	43.9057
588.963	27.7571
591.856	35.4059
594.749	53.854
597.641	53.6865
600.534	53.8221
603.427	29.5366
606.319	31.7419
609.212	46.1937
612.105	13.2891
614.997	24.0892
617.89	17.8772
620.783	3.1745
623.676	11.8121
626.568	16.3405
629.461	6.01257
632.354	11.1439
635.246	9.67059
638.139	9.51575
641.032	21.2043
643.924	16.243
646.817	9.80707
649.71	21.0325
652.603	9.07745
655.495	4.45831
658.388	0.540527
661.281	17.1055
664.173	17.2935
667.066	11.3652
669.959	19.1888
672.851	10.291
675.744	14.5461
678.637	12.8724
681.53	39.0251
684.422	15.2641
687.315	3.15619
690.208	27.3152
693.1	10.4669
695.993	31.2261
698.886	13.2453
701.779	19.4857
704.671	21.6653
707.564	53.5703
710.457	37.6587
713.349	17.2628
716.242	40.5044
719.135	33.1566
722.027	46.7996
724.92	49.5742
727.813	27.9684
730.706	53.0493
733.598	58.3583
736.491	72.3928
739.384	83.6531
742.276	85.1704
745.169	81.3788
748.062	82.4552
750.954	43.3426
753.847	57.9124
756.74	17.0774
759.633	16.5436
762.525	2.63855
765.418	28.8385
768.311	13.4533
771.203	8.40625
774.096	33.4472
776.989	6.03876
779.881	1.58044
782.774	1.88672
785.667	20.6895
788.559	12.4341
791.452	41.3585
794.345	19.9293
797.238	62.3023
800.13	56.7472
803.023	75.4005
805.916	98.3914
808.808	128.681
811.701	171.312
814.594	195.523
817.486	248.953
820.379	245.732
823.272	258.144
826.165	226.082
829.057	201.954
831.95	164.645
834.843	131.401
837.735	108.002
840.628	96.5431
843.521	46.0489
846.413	55.2911
849.306	63.0399
852.199	29.3547
855.092	14.0825
857.984	40.877
860.877	0.044739
863.77	17.2036
866.662	32.8716
869.555	43.5317
872.448	14.9568
875.341	18.0692
878.233	3.57611
881.126	12.9232
884.019	10.4442
886.911	7.28253
889.804	23.7156
892.697	27.6483
895.589	53.2899
898.482	15.9266
901.375	22.4793
904.268	31.2398
907.16	12.0316
910.053	41.1102
912.946	7.0282
915.838	44.7678
918.731	1.75824
921.624	3.26508
924.516	25.9274
927.409	21.2308
930.302	16.2483
933.194	58.7225
936.087	37.4379
938.98	45.4229
941.873	13.5008
944.765	25.1647
947.658	87.2576
950.551	36.712
953.443	4.00678
956.336	17.0907
959.229	58.696
962.121	31.9567
965.014	24.8637
967.907	7.00378
970.8	48.3245
973.692	12.0337
976.585	8.53723
979.478	10.4398
982.37	56.3096
985.263	11.8006
988.156	17.4097
991.048	27.2974
993.941	21.8351
996.834	38.5711
999.727	3.73828
1002.62	21.8903
1005.51	21.3631
1008.4	41.3204
1011.3	48.0167
1014.19	43.3335
1017.08	40.2212
1019.98	46.3413
1022.87	33.1762
1025.76	26.8033
1028.65	39.7861
1031.55	21.9964
1034.44	27.5082
1037.33	39.9619
1040.22	54.9188
1043.12	59.596
1046.01	31.3746
1048.9	17.5781
1051.8	55.3618
1054.69	30.5158
1057.58	25.8914
1060.47	14.6979
1063.37	21.7119
1066.26	33.2246
1069.15	18.9982
1072.04	35.1756
1074.94	47.694
1077.83	61.2532
1080.72	52.1718
1083.62	37.1332
1086.51	51.0187
1089.4	56.5018
1092.29	18.1717
1095.19	51.3563
1098.08	39.8146
1100.97	58.1069
1103.86	1.93018
1106.76	0.746216
1109.65	42.0784
1112.54	43.0335
1115.43	9.30273
1118.33	19.1407
1121.22	19.2582
1124.11	34.7
1127.01	34.384
1129.9	25.2431
1132.79	62.9819
1135.68	11.6693
1138.58	38.4206
1141.47	46.7165
1144.36	4.18243
1147.25	35.8238
1150.15	31.5145
1153.04	12.1711
1155.93	30.1118
1158.83	36.1959
1161.72	11.0808
1164.61	19.5187
1167.5	41.1235
1170.4	38.041
1173.29	31.1514
1176.18	2.758
1179.07	33.9721
1181.97	28.1802
1184.86	36.9701
1187.75	56.1852
1190.64	44.7642
1193.54	66.5913
1196.43	20.7114
1199.32	14.8308
1202.22	29.8843
1205.11	45.8322
1208	56.7358
1210.89	37.9239
1213.79	18.1019
1216.68	25.9368
1219.57	17.6699
1222.46	28.3289
1225.36	31.0921
1228.25	13.3354
1231.14	50.3784
1234.04	19.4153
