Measurement: Raman, 780 nm, unoriented, Raman Data Processed
Mineral: Germanite
Rruff sample: R050439
Ideal chemistry: Cu^1+^_8_Cu^2+^_5_Fe^3+^_2_Ge^4+^_2_S^2-^_16_
Locality: Tsumeb mine, Tsumeb, Otavi District, Oshikoto, Namibia
Source: University of Arizona Mineral Museum
Description: Black with purple hints, massive
Measured chemistry: (Cu_11.61_Fe^2+^_0.87_Zn_0.52_)_Σ=13_Fe_2.00_(Ge_1.71_As_0.29_)_Σ=2_S_16.00_ ; = dark-gray phase. (Cu_10.59_Zn_0.41_)_Σ=11_Fe_4.00_(Ge_1.46_As_0.54_)_Σ=2_S_16.00_ = lighter-gray phase. Lightest phase is PbS.
Raman shift (cm-1)	intensity
120.3	0
123.674	3.17135
127.049	1.84468
130.424	2.9723
133.799	2.63485
137.174	0.610184
140.549	4.73715
143.923	4.26477
147.298	3.05647
150.673	2.88597
154.048	1.26063
157.423	0.820065
160.798	3.35191
164.172	4.77463
167.547	2.026
170.922	3.681
174.297	0.906357
177.672	3.88794
181.046	3.07504
184.421	3.13692
187.796	1.90847
191.171	0.081211
194.546	1.16958
197.921	2.89782
201.295	3.60988
204.67	1.93904
208.045	2.67614
211.42	1.4301
214.795	1.67793
218.169	3.35701
221.544	1.90601
224.919	2.01886
228.294	1.47709
231.669	1.51721
235.043	1.60367
238.418	2.51178
241.793	0.191631
245.168	0.63427
248.543	0.631794
251.918	1.05354
255.292	2.40541
258.667	1.26096
262.042	3.95905
265.417	1.83123
268.792	1.33285
272.166	2.48521
275.541	1.08424
278.916	1.28637
282.291	1.75593
285.666	2.97488
289.041	0.698895
292.415	5.87683
295.79	2.12025
299.165	0.60392
302.54	1.98006
305.915	2.1739
309.289	3.67403
312.664	3.50843
316.039	4.83601
319.414	4.70746
322.789	6.7994
326.164	3.8355
329.538	4.20025
332.913	0.882278
336.288	3.18316
339.663	1.12733
343.038	3.03198
346.413	4.10748
349.787	6.77677
353.162	8.22963
356.537	7.49374
359.912	3.60469
363.287	2.10916
366.661	0.562805
370.036	1.70136
373.411	2.31028
376.786	1.14618
380.161	0.498924
383.536	1.59007
386.91	0.809029
390.285	0.073059
393.66	0.303352
397.035	0.181709
400.41	0.603161
403.784	0.023441
407.159	2.73226
410.534	2.21947
413.909	2.59579
417.284	0.997364
420.659	1.75542
424.033	0.321796
427.408	0.258698
430.783	3.46642
434.158	2.50362
437.533	1.5051
440.907	3.67051
444.282	2.08452
447.657	2.25367
451.032	2.09924
454.407	0.738987
457.781	1.09398
461.156	3.41866
464.531	2.09572
467.906	1.27945
471.281	2.70463
474.656	2.24808
478.031	2.58612
481.405	1.78905
484.78	1.87917
488.155	0.57999
491.53	3.10177
494.904	1.50654
498.279	1.40574
501.654	2.57249
505.029	4.79402
508.404	1.93453
511.779	1.62557
515.153	1.30851
518.528	2.76278
521.903	0.658249
525.278	1.51791
528.653	0.628513
532.028	2.78622
535.402	1.80411
538.777	0.002739
542.152	2.87858
545.527	0.473629
548.902	1.88502
552.277	2.51052
555.651	1.88272
559.026	2.6874
562.401	1.83824
565.776	1.69869
569.151	1.21816
572.525	1.40152
575.9	1.1011
579.275	0.615688
582.65	1.04732
586.025	2.89136
589.399	0.105392
592.774	3.35536
596.149	0.607265
599.524	2.14893
602.899	1.52809
606.274	3.69543
609.648	3.25547
613.023	1.61461
616.398	1.06138
619.773	1.71226
623.148	2.46536
626.523	1.26041
629.897	1.81958
633.272	0.059704
636.647	1.31992
640.022	2.69508
643.397	3.07318
646.771	0.356216
650.146	2.87587
653.521	2.01741
656.896	2.34649
660.271	1.77652
663.645	2.16206
667.02	1.04646
670.395	3.61129
673.77	2.29855
677.145	4.23083
680.52	2.2989
683.894	1.61269
687.269	1.38466
690.644	2.50605
694.019	0.467449
697.394	1.86926
700.769	1.91688
704.143	2.96287
707.518	1.60753
710.893	0.329384
714.268	3.36472
717.643	0.712532
721.017	0.022373
724.392	0.78746
727.767	1.97427
731.142	0.75816
734.517	2.23126
737.891	0.677025
741.266	4.4408
744.641	0.282829
748.016	2.70932
751.391	0.966137
754.766	1.88065
758.14	1.41175
761.515	1.19904
764.89	0.445267
768.265	1.91908
771.64	2.25893
775.014	1.36751
778.389	1.47743
781.764	0.670788
785.139	2.69968
788.514	2.18477
791.889	2.27309
795.263	0.710247
798.638	1.10474
802.013	1.94556
805.388	2.3793
808.763	2.35784
812.138	2.64015
815.512	1.42273
818.887	1.61385
822.262	1.63565
825.637	2.47471
829.012	1.94019
832.386	3.16045
835.761	2.86676
839.136	0.114639
842.511	2.33264
845.886	3.01231
849.261	1.46652
852.635	0.061623
856.01	3.30346
859.385	2.90187
862.76	2.75552
866.135	3.00634
869.51	2.89051
872.884	0.928429
876.259	1.28693
879.634	1.50313
883.009	0.2211
886.384	1.70237
889.758	1.13871
893.133	3.54993
896.508	0.200348
899.883	2.12359
903.258	1.03051
906.632	0.112633
910.007	1.39801
913.382	2.05405
916.757	1.90854
920.132	1.96207
923.506	1.2161
926.881	0.053921
930.256	0.141434
933.631	0.991005
937.006	2.50193
940.381	1.06547
943.755	1.27229
947.13	1.52988
950.505	2.77709
953.88	1.02167
957.255	0.622292
960.63	0.752502
964.004	2.65168
967.379	2.77966
970.754	0.759647
974.129	3.19564
977.504	0.117664
980.879	0.811939
984.253	2.14117
987.628	1.12014
991.003	2.38057
994.378	0.051014
997.753	1.02182
1001.13	0.320938
1004.5	2.59543
1007.88	1.16457
1011.25	1.2491
1014.63	1.37717
1018	2.68621
1021.38	1.14263
1024.75	2.43345
1028.13	2.35419
1031.5	2.10928
1034.88	1.38082
1038.25	2.48772
1041.62	0.703396
1045	1.29364
1048.38	1.69051
1051.75	1.11594
1055.12	0.687069
1058.5	3.81095
1061.87	1.74222
1065.25	2.3442
1068.62	0.257713
1072	0.866692
1075.37	0.287163
1078.75	0.061836
1082.12	1.68912
1085.5	1.73614
1088.87	2.47356
1092.25	2.26674
1095.62	0.191853
1099	2.0252
1102.37	2.55354
1105.75	2.35957
1109.12	0.611462
1112.5	1.91286
1115.87	2.18681
1119.25	2.61191
1122.62	0.414696
1126	2.64476
1129.37	3.53999
1132.74	2.74944
1136.12	1.52107
1139.49	1.71418
1142.87	1.29044
1146.24	0.306538
1149.62	1.57241
1152.99	1.45148
1156.37	0.560982
1159.74	0.69173
1163.12	0.358482
1166.49	1.20159
1169.87	1.7053
1173.24	2.16019
1176.62	3.11187
1179.99	2.07318
1183.37	1.43593
1186.74	4.10501
1190.12	2.31615
1193.49	3.16584
1196.87	2.45187
1200.24	3.4653
1203.62	1.00911
1206.99	0.554672
1210.37	0.095539
1213.74	1.63584
1217.12	1.1037
1220.49	2.06088
1223.87	0.730209
1227.24	1.64123
1230.62	1.21568
1233.99	2.29926
1237.37	3.12657
1240.74	2.53285
1244.11	2.56824
1247.49	2.88742
1250.86	0.066792
1254.24	1.14233
1257.61	2.34935
1260.99	3.50053
1264.36	3.35545
1267.74	0.997337
1271.11	1.71778
1274.49	1.43687
1277.86	0
