Measurement: Raman, 532 nm, unoriented, Raman Data Processed
Mineral: Gersdorffite
Rruff sample: R070341
Ideal chemistry: Ni^3+^(AsS)^3-^
Locality: Lubietová (Libethen), Banská Bystrica (Neusohl) District, Banskobystrický kraj, Slovak Republic
Source: Michael Scott
Description: Grey metallic massive vein associated with siderite. Structure refined to determine space group.
Raman shift (cm-1)	intensity
133.27	0
136.645	13.4104
140.019	71.2695
143.394	27.1873
146.769	30.7167
150.144	46.1007
153.519	66.2611
156.894	48.3697
160.268	48.7837
163.643	73.4444
167.018	75.0282
170.393	107.575
173.768	91.0025
177.143	89.4412
180.517	86.9472
183.892	97.2718
187.267	115.658
190.642	86.5169
194.017	57.5101
197.391	61.9893
200.766	67.9636
204.141	64.6141
207.516	33.3855
210.891	35.1916
214.266	19.6251
217.64	15.5151
221.015	8.8302
224.39	6.3696
227.765	7.25678
231.14	5.55827
234.514	15.8379
237.889	9.81354
241.264	35.874
244.639	30.3292
248.014	44.7058
251.388	70.4242
254.763	58.583
258.138	65.5268
261.513	50.1088
264.888	51.5153
268.263	49.1598
271.637	29.2669
275.012	27.8928
278.387	22.8315
281.762	2.98152
285.137	11.0574
288.512	9.36911
291.886	6.93837
295.261	13.9415
298.636	19.594
302.011	23.9418
305.386	30.616
308.76	37.359
312.135	25.8283
315.51	30.537
318.885	41.5901
322.26	49.6287
325.635	38.3757
329.009	50.8443
332.384	45.3256
335.759	46.7291
339.134	28.7527
342.509	22.2839
345.883	38.2088
349.258	38.3659
352.633	15.8867
356.008	11.9645
359.383	12.5682
362.757	17.983
366.132	17.6616
369.507	4.75439
372.882	2.2733
376.257	6.17448
379.632	4.38951
383.006	16.7053
386.381	8.32931
389.756	4.96913
393.131	5.14847
396.506	1.02083
399.88	1.77428
403.255	4.91585
406.63	7.07004
410.005	19.2562
413.38	12.0586
416.755	15.9627
420.129	25.1216
423.504	9.75911
426.879	13.4798
430.254	12.6139
433.629	2.10967
437.003	6.699
440.378	9.92615
443.753	21.7807
447.128	20.5685
450.503	23.1501
453.878	23.454
457.252	18.4179
460.627	22.0322
464.002	16.5289
467.377	0.096069
470.752	26.4661
474.127	7.31781
477.501	11.5143
480.876	10.3222
484.251	22.9764
487.626	21.663
491.001	15.5739
494.375	35.3878
497.75	11.439
501.125	8.73732
504.5	32.0924
507.875	22.1757
511.25	8.0917
514.624	6.7811
517.999	23.4919
521.374	0.159195
524.749	20.821
528.124	2.74788
531.498	17.9881
534.873	3.83819
538.248	27.7328
541.623	19.8276
544.998	19.6622
548.372	5.07726
551.747	12.4821
555.122	8.27305
558.497	12.0103
561.872	12.7968
565.247	4.39692
568.621	11.2328
571.996	5.16532
575.371	15.2988
578.746	19.9258
582.121	25.7656
585.495	32.0269
588.87	19.0127
592.245	8.3735
595.62	20.6514
598.995	8.9499
602.37	17.0096
605.744	15.6435
609.119	8.41582
612.494	7.66685
615.869	2.47022
619.244	12.644
622.619	28.2674
625.993	1.73888
629.368	15.6207
632.743	15.6601
636.118	8.14316
639.493	31.6406
642.867	19.7342
646.242	3.93268
649.617	10.324
652.992	15.956
656.367	0.402176
659.741	33.6724
663.116	12.4645
666.491	15.8164
669.866	4.79765
673.241	8.2124
676.616	3.12821
679.99	15.0323
683.365	11.1023
686.74	4.60377
690.115	21.2085
693.49	15.9585
696.865	13.2988
700.239	22.252
703.614	19.9401
706.989	6.7264
710.364	7.9648
713.739	14.8546
717.113	26.1264
720.488	12.1138
723.863	16.9239
727.238	4.6229
730.613	11.5255
733.987	19.1448
737.362	26.3798
740.737	12.1125
744.112	10.5725
747.487	18.2965
750.862	13.0679
754.236	33.0786
757.611	4.8672
760.986	22.1932
764.361	15.5675
767.736	19.2549
771.111	3.28683
774.485	16.6365
777.86	19.2193
781.235	19.0248
784.61	31.6775
787.985	28.8912
791.359	11.2063
794.734	14.9339
798.109	11.7168
801.484	9.46619
804.859	8.31538
808.234	11.3066
811.608	8.16113
814.983	9.2441
818.358	5.03666
821.733	8.14947
825.108	21.1877
828.482	17.4616
831.857	14.4898
835.232	11.6636
838.607	17.7076
841.982	19.8643
845.356	1.04317
848.731	16.8722
852.106	14.9291
855.481	1.1228
858.856	24.2165
862.231	23.4241
865.605	8.72297
868.98	19.5596
872.355	23.2423
875.73	4.59959
879.105	23.9042
882.48	16.0536
885.854	11.3649
889.229	14.7599
892.604	8.79718
895.979	0.032631
899.354	18.8644
902.729	3.72171
906.103	33.0412
909.478	16.9391
912.853	8.70647
916.228	20.7716
919.602	18.2199
922.977	22.9448
926.352	3.42183
929.727	16.54
933.102	12.8459
936.477	9.52406
939.851	15.7634
943.226	15.4627
946.601	23.903
949.976	23.0155
953.351	5.59466
956.726	0.465462
960.1	12.5194
963.475	15.7743
966.85	10.5751
970.225	7.06764
973.6	2.91652
976.974	23.8905
980.349	2.63158
983.724	2.67086
987.099	20.5515
990.474	1.37261
993.848	14.6576
997.223	17.9689
1000.6	19.1691
1003.97	20.722
1007.35	14.7016
1010.72	6.99554
1014.1	20.8316
1017.47	11.825
1020.85	21.8192
1024.22	26.8811
1027.6	40.1606
1030.97	35.7025
1034.35	9.88269
1037.72	13.8617
1041.1	16.7261
1044.47	17.7463
1047.85	20.733
1051.22	23.5106
1054.6	21.3821
1057.97	23.4761
1061.35	7.89905
1064.72	11.707
1068.09	8.97123
1071.47	20.8611
1074.84	27.7964
1078.22	11.4633
1081.59	34.6402
1084.97	15.3923
1088.34	0.166893
1091.72	24.6575
1095.09	27.8133
1098.47	22.6103
1101.84	1.79913
1105.22	16.5789
1108.59	10.1177
1111.97	9.04627
1115.34	14.3341
1118.72	28.7223
1122.09	14.2818
1125.47	19.0041
1128.84	10.747
1132.22	21.5976
1135.59	5.47479
1138.97	28.6836
1142.34	9.73924
1145.71	11.4445
1149.09	12.1079
1152.46	17.9858
1155.84	19.4489
1159.21	6.64563
1162.59	16.2767
1165.96	5.96516
1169.34	3.52635
1172.71	0.337151
1176.09	21.8661
1179.46	18.6807
1182.84	0.807892
1186.21	24.119
1189.59	18.9806
1192.96	10.74
1196.34	3.83832
1199.71	19.0217
1203.09	19.16
1206.46	9.24463
1209.84	12.7583
1213.21	18.1276
1216.59	23.1637
1219.96	17.8047
1223.34	14.6512
1226.71	11.5192
1230.09	25.069
1233.46	5.37437
1236.84	18.3468
1240.21	20.514
1243.59	5.64696
1246.96	13.0242
1250.34	22.2016
1253.71	2.61809
1257.08	12.1062
1260.46	17.6356
1263.83	20.4733
1267.21	15.5478
1270.58	1.32132
1273.96	36.9476
1277.33	4.79649
1280.71	16.7976
1284.08	13.7936
1287.46	16.2538
1290.83	21.7244
1294.21	2.39658
