Measurement: Raman, 785 nm, unoriented, Raman Data Processed
Mineral: Gersdorffite
Rruff sample: R070304
Ideal chemistry: Ni^3+^(AsS)^3-^
Locality: Aït Ahmane, Bou Azzer, Anti-Atlas Mts, Morocco
Source: Michael Scott
Description: Steel gray metallic massive, this sample used by Bayliss to create ICDD data. Structure refined to determine space group.
Measured chemistry: (Ni_0.99_Co_0.01_)_Σ=1_As_1.00_S_1.00_ ; trace amounts of Fe
Raman shift (cm-1)	intensity
162.964	0
165.856	33.7632
168.749	31.9266
171.642	43.9987
174.534	44.3099
177.427	16.0857
180.32	9.77698
183.212	7.47833
186.105	82.7131
188.998	80.454
191.891	28.4928
194.783	5.71078
197.676	0.907074
200.569	1.80566
203.461	6.70123
206.354	13.2864
209.247	28.9282
212.139	36.8258
215.032	71.1836
217.925	97.6299
220.818	87.8536
223.71	51.0002
226.603	25.3198
229.496	5.34975
232.388	20.5328
235.281	9.57076
238.174	5.28717
241.066	15.5934
243.959	17.4595
246.852	15.6179
249.745	4.66618
252.637	18.278
255.53	7.87457
258.423	7.11881
261.315	3.71751
264.208	5.76912
267.101	0.144058
269.993	14.0739
272.886	7.47517
275.779	10.2065
278.672	12.2468
281.564	21.6157
284.457	17.7249
287.35	37.6481
290.242	36.7149
293.135	38.8455
296.028	43.4952
298.921	33.56
301.813	26.1818
304.706	34.6505
307.599	22.1139
310.491	34.9033
313.384	30.137
316.277	46.2739
319.169	18.8267
322.062	13.6573
324.955	35.5919
327.847	27.1788
330.74	0.586548
333.633	19.0773
336.526	21.7236
339.418	31.315
342.311	38.5866
345.204	28.0851
348.096	16.5466
350.989	10.4669
353.882	13.2841
356.774	3.04442
359.667	14.0579
362.56	14.3377
365.452	4.83244
368.345	6.61398
371.238	6.10391
374.131	18.1375
377.023	15.7295
379.916	16.4329
382.809	22.8439
385.701	18.017
388.594	13.4394
391.487	25.1558
394.38	13.8627
397.272	0.842636
400.165	4.01674
403.058	16.2175
405.95	15.5458
408.843	11.3516
411.736	13.0559
414.628	31.2899
417.521	17.0045
420.414	16.7883
423.307	2.88907
426.199	12.9284
429.092	8.81052
431.985	11.1487
434.877	5.57358
437.77	4.72672
440.663	6.02133
443.555	20.3829
446.448	16.4326
449.341	20.3346
452.234	16.9294
455.126	19.1897
458.019	8.42673
460.912	16.9257
463.804	17.2103
466.697	3.20229
469.59	10.1644
472.483	8.97568
475.375	6.30379
478.268	6.77043
481.161	6.61343
484.053	13.6568
486.946	16.5012
489.839	1.96603
492.731	18.1551
495.624	27.3679
498.517	20.8433
501.409	23.5183
504.302	2.70592
507.195	17.6531
510.088	18.9322
512.98	4.31767
515.873	11.856
518.766	11.4908
521.658	11.4458
524.551	11.4722
527.444	1.82211
530.337	3.19545
533.229	23.3765
536.122	16.8953
539.015	16.9124
541.907	5.41736
544.8	9.25452
547.693	21.5283
550.585	7.72109
553.478	1.50162
556.371	10.1803
559.263	17.0401
562.156	11.7262
565.049	21.2788
567.942	13.1001
570.834	12.9002
573.727	16.7048
576.62	24.871
579.512	20.2647
582.405	15.6787
585.298	7.08629
588.19	11.1241
591.083	4.13119
593.976	13.8981
596.869	6.00911
599.761	10.1752
602.654	1.95253
605.547	15.0107
608.439	12.6044
611.332	6.45537
614.225	15.2726
617.117	12.5771
620.01	10.677
622.903	14.7065
625.795	15.914
628.688	4.25716
631.581	5.84027
634.474	7.51704
637.366	15.054
640.259	17.8126
643.152	12.0729
646.044	6.13596
648.937	20.9271
651.83	5.13007
654.722	18.8246
657.615	7.0309
660.508	26.6571
663.401	14.0291
666.293	20.8778
669.186	12.189
672.079	17.5678
674.971	14.8165
677.864	7.13484
680.757	19.0004
683.649	0.247726
686.542	13.2796
689.435	2.37292
692.328	15.4317
695.22	3.57169
698.113	3.49045
701.006	12.3332
703.898	7.02339
706.791	9.98682
709.684	20.9752
712.577	9.21983
715.469	8.85855
718.362	23.4562
721.255	13.2725
724.147	18.1102
727.04	8.97905
729.933	4.15251
732.825	6.44254
735.718	11.4689
738.611	15.2067
741.504	2.1201
744.396	15.8135
747.289	8.31406
750.182	25.6012
753.074	4.64665
755.967	24.1829
758.86	4.68494
761.752	9.06494
764.645	9.9601
767.538	10.0968
770.431	18.2707
773.323	23.842
776.216	25.331
779.109	19.1899
782.001	18.5281
784.894	5.18286
787.787	11.1436
790.679	24.4218
793.572	12.3054
796.465	12.4451
799.357	11.126
802.25	20.1982
805.143	2.56523
808.036	8.89253
810.928	25.2693
813.821	22.0277
816.714	17.9987
819.606	0.025589
822.499	9.11424
825.392	14.8172
828.284	20.6708
831.177	5.18483
834.07	7.88554
836.963	16.4068
839.855	14.5422
842.748	2.22916
845.641	17.0382
848.533	20.6221
851.426	12.7441
854.319	8.99861
857.212	32.8016
860.104	9.24571
862.997	5.00803
865.89	13.6961
868.782	18.2728
871.675	8.60231
874.568	18.3057
877.46	15.8535
880.353	3.42285
883.246	8.08313
886.139	10.472
889.031	1.10022
891.924	19.367
894.817	33.059
897.709	11.1565
900.602	15.3734
903.495	5.70262
906.388	12.6115
909.28	8.47128
912.173	9.07063
915.066	12.4995
917.958	18.514
920.851	5.12611
923.744	21.9187
926.636	22.9093
929.529	7.53764
932.422	20.5601
935.314	15.1563
938.207	17.7884
941.1	11.5035
943.993	13.1482
946.885	1.16196
949.778	14.766
952.671	17.3946
955.563	20.125
958.456	15.1759
961.349	4.08043
964.241	16.4407
967.134	24.4642
970.027	12.2397
972.92	17.03
975.812	13.5794
978.705	14.3672
981.598	1.97598
984.49	21.1407
987.383	9.70461
990.276	23.5732
993.168	13.8575
996.061	7.03424
998.954	31.3726
1001.85	13.3234
1004.74	7.01483
1007.63	11.391
1010.52	8.40453
1013.42	22.7209
1016.31	10.4172
1019.2	9.48434
1022.1	11.8427
1024.99	19.7727
1027.88	5.61157
1030.77	13.0339
1033.67	2.32675
1036.56	37.0237
1039.45	14.953
1042.34	10.7065
1045.24	30.6004
1048.13	19.0666
1051.02	32.7986
1053.91	21.2029
1056.81	15.3603
1059.7	14.8689
1062.59	21.368
1065.49	10.2215
1068.38	13.4834
1071.27	5.95577
1074.16	16.0812
1077.06	22.5952
1079.95	8.85055
1082.84	19.3904
1085.73	18.0945
1088.63	29.5428
1091.52	22.8731
1094.41	20.2945
1097.31	30.6017
1100.2	3.08464
1103.09	8.1922
1105.98	9.75998
1108.88	15.7093
1111.77	14.5647
1114.66	11.8804
1117.56	28.8957
1120.45	3.37267
1123.34	5.43152
1126.23	8.9619
1129.12	14.4918
1132.02	20.2147
1134.91	12.4271
1137.8	12.4527
1140.7	14.4287
1143.59	24.766
1146.48	17.8634
1149.37	0.682755
1152.27	34.2756
1155.16	19.0136
1158.05	15.8637
1160.94	0.716995
1163.84	4.98854
1166.73	12.0784
1169.62	9.35344
1172.52	24.8327
1175.41	5.67537
1178.3	13.087
1181.19	6.77599
1184.09	14.9045
1186.98	9.60542
1189.87	14.5928
1192.77	9.40886
1195.66	19.6795
1198.55	25.3033
1201.44	10.4789
1204.34	38.8573
1207.23	9.52599
1210.12	4.27693
1213.01	10.5664
1215.91	17.9803
1218.8	0.807083
1221.69	12.5294
1224.58	9.54385
1227.48	21.6423
1230.37	21.9061
1233.26	1.45226
1236.15	28.8009
1239.05	31.2171
1241.94	0.127197
