Measurement: Raman, 785 nm, unoriented, Raman Data Processed
Mineral: Gersdorffite
Rruff sample: R070341
Ideal chemistry: Ni^3+^(AsS)^3-^
Locality: Lubietová (Libethen), Banská Bystrica (Neusohl) District, Banskobystrický kraj, Slovak Republic
Source: Michael Scott
Description: Grey metallic massive vein associated with siderite. Structure refined to determine space group.
Raman shift (cm-1)	intensity
165.856	0
168.749	1.01221
171.642	39.1731
174.534	27.0033
177.427	42.5467
180.32	0.030457
183.212	42.7921
186.105	55.8182
188.998	65.0228
191.891	40.7963
194.783	69.5922
197.676	75.9841
200.569	37.7152
203.461	59.7976
206.354	65.718
209.247	35.5666
212.139	10.9652
215.032	9.18131
217.925	15.1086
220.818	8.82483
223.71	4.45895
226.603	1.01636
229.496	21.4521
232.388	16.9
235.281	12.8898
238.174	24.7386
241.066	31.0045
243.959	58.7006
246.852	58.2405
249.745	62.1707
252.637	75.7188
255.53	84.4102
258.423	75.5001
261.315	85.1582
264.208	86.5767
267.101	66.3217
269.993	76.2498
272.886	67.8874
275.779	60.0062
278.672	47.4201
281.564	42.4207
284.457	27.189
287.35	25.2949
290.242	23.7113
293.135	31.7986
296.028	41.6276
298.921	43.0763
301.813	29.6676
304.706	43.9924
307.599	62.3081
310.491	39.7606
313.384	49.5122
316.277	42.0011
319.169	40.4662
322.062	35.0289
324.955	21.1553
327.847	33.5188
330.74	21.9482
333.633	15.8232
336.526	18.3126
339.418	44.0221
342.311	30.5375
345.204	37.5837
348.096	23.0711
350.989	25.6194
353.882	14.7894
356.774	16.529
359.667	1.59914
362.56	10.4573
365.452	2.73637
368.345	4.67342
371.238	2.08116
374.131	16.4093
377.023	8.34622
379.916	10.2226
382.809	11.9698
385.701	11.0728
388.594	9.17738
391.487	15.9318
394.38	2.34793
397.272	5.09807
400.165	4.88846
403.058	9.39685
405.95	2.19006
408.843	4.8385
411.736	1.08339
414.628	12.0288
417.521	1.19218
420.414	6.3728
423.307	14.2342
426.199	9.66773
429.092	17.2408
431.985	18.2727
434.877	19.6157
437.77	43.1345
440.663	8.56183
443.555	5.47314
446.448	7.46071
449.341	11.498
452.234	17.5747
455.126	6.79996
458.019	12.6959
460.912	18.5871
463.804	16.4595
466.697	33.4492
469.59	9.28908
472.483	21.1271
475.375	6.81361
478.268	14.0316
481.161	12.4191
484.053	9.72105
486.946	8.5466
489.839	14.2785
492.731	20.3467
495.624	6.35889
498.517	22.9248
501.409	2.88988
504.302	4.29578
507.195	10.0175
510.088	20.8859
512.98	6.09351
515.873	5.34741
518.766	9.21281
521.658	12.1481
524.551	6.8439
527.444	6.98903
530.337	11.6543
533.229	25.7512
536.122	14.5752
539.015	4.97716
541.907	9.48503
544.8	13.7906
547.693	5.36621
550.585	13.512
553.478	12.9105
556.371	10.7178
559.263	9.08258
562.156	6.38206
565.049	8.47987
567.942	12.0262
570.834	3.00568
573.727	12.9003
576.62	7.71217
579.512	8.64058
582.405	5.63199
585.298	21.057
588.19	12.9788
591.083	9.06744
593.976	2.70465
596.869	12.5486
599.761	6.75578
602.654	5.9328
605.547	20.95
608.439	6.27441
611.332	8.78059
614.225	6.08758
617.117	9.74588
620.01	10.635
622.903	9.90967
625.795	11.5899
628.688	11.456
631.581	6.67305
634.474	17.0659
637.366	13.5436
640.259	17.5106
643.152	12.0256
646.044	21.559
648.937	11.6324
651.83	13.7594
654.722	8.11029
657.615	18.1237
660.508	10.2702
663.401	19.8463
666.293	8.55841
669.186	14.2679
672.079	26.6688
674.971	10.9504
677.864	11.7658
680.757	23.2695
683.649	11.7731
686.542	12.6788
689.435	18.193
692.328	7.68486
695.22	6.37678
698.113	20.25
701.006	15.1081
703.898	20.3131
706.791	27.7332
709.684	17.7047
712.577	14.2994
715.469	25.0384
718.362	22.7755
721.255	25.4639
724.147	25.0689
727.04	14.3714
729.933	19.6651
732.825	13.4227
735.718	11.5001
738.611	16.6544
741.504	18.0313
744.396	6.14131
747.289	17.766
750.182	13.7328
753.074	4.43625
755.967	1.51695
758.86	13.2556
761.752	6.6132
764.645	12.1854
767.538	18.9428
770.431	17.7307
773.323	7.01578
776.216	12.6522
779.109	18.3379
782.001	7.97311
784.894	5.04077
787.787	0.586929
790.679	8.05718
793.572	10.7649
796.465	11.8816
799.357	4.36856
802.25	5.78374
805.143	11.7618
808.036	20.0852
810.928	14.4855
813.821	18.1798
816.714	5.89052
819.606	23.2474
822.499	11.2745
825.392	10.8472
828.284	6.84752
831.177	2.03064
834.07	9.94273
836.963	6.85329
839.855	10.0673
842.748	12.837
845.641	15.5194
848.533	8.07193
851.426	15.8239
854.319	14.8049
857.212	11.7775
860.104	19.7802
862.997	11.9102
865.89	9.17885
868.782	20.5988
871.675	17.0427
874.568	4.47629
877.46	13.4658
880.353	21.4746
883.246	17.3177
886.139	10.6948
889.031	16.9434
891.924	1.56955
894.817	2.9539
897.709	0.717606
900.602	28.6759
903.495	7.97371
906.388	5.07695
909.28	7.63548
912.173	1.39819
915.066	21.6559
917.958	13.2246
920.851	3.95017
923.744	7.67592
926.636	10.8383
929.529	13.355
932.422	5.38646
935.314	14.4539
938.207	3.1812
941.1	4.52348
943.993	5.54146
946.885	3.66571
949.778	13.8598
952.671	1.35615
955.563	26.7903
958.456	5.823
961.349	13.7136
964.241	14.2203
967.134	13.601
970.027	19.3121
972.92	1.76718
975.812	12.4074
978.705	26.7389
981.598	7.18237
984.49	11.1688
987.383	24.3127
990.276	8.09761
993.168	6.2576
996.061	16.6569
998.954	6.63856
1001.85	19.536
1004.74	6.66092
1007.63	6.73236
1010.52	15.3782
1013.42	4.09433
1016.31	12.405
1019.2	1.08861
1022.1	2.42783
1024.99	4.22333
1027.88	9.02931
1030.77	5.11136
1033.67	11.2885
1036.56	35.7112
1039.45	19.5188
1042.34	31.4802
1045.24	16.3471
1048.13	26.5013
1051.02	13.42
1053.91	15.2466
1056.81	17.2998
1059.7	20.7566
1062.59	13.6431
1065.49	18.1791
1068.38	3.99208
1071.27	13.3491
1074.16	6.89432
1077.06	16.9123
1079.95	18.5241
1082.84	14.4022
1085.73	21.5815
1088.63	11.2359
1091.52	2.3579
1094.41	14.8552
1097.31	11.0216
1100.2	8.99368
1103.09	16.414
1105.98	0.641037
1108.88	12.6848
1111.77	16.593
1114.66	8.78413
1117.56	19.3037
1120.45	18.7075
1123.34	3.75926
1126.23	18.4012
1129.12	3.55705
1132.02	7.89508
1134.91	12.5122
1137.8	14.2958
1140.7	0.857391
1143.59	9.75844
1146.48	3.85312
1149.37	5.45975
1152.27	9.09793
1155.16	16.423
1158.05	6.28679
1160.94	21.4612
1163.84	8.53726
1166.73	6.28917
1169.62	9.1308
1172.52	0.42926
1175.41	21.7474
1178.3	11.6244
1181.19	11.0118
1184.09	9.50967
1186.98	1.54333
1189.87	8.26048
1192.77	11.9009
1195.66	18.0998
1198.55	5.91862
1201.44	6.81018
1204.34	18.7923
1207.23	27.5094
1210.12	18.6396
1213.01	25.3456
1215.91	12.3111
1218.8	25.5005
1221.69	16.6825
1224.58	9.96083
1227.48	15.426
