Measurement: Raman, 532 nm, unoriented, Raman Data Processed
Mineral: Gladiusite
Rruff sample: R070432
Ideal chemistry: Fe^3+^_2_Fe^2+^_4_PO_4_(OH)_11_H_2_O
Locality: Kovdor mine, Kovdor Massif, Kola Peninsula, Murmanskaja Oblast', Northern Region, Russia
Source: Michael Scott
Description: Bundles of olive green fibers on dolomite matrix
Raman shift (cm-1)	intensity
176.439	0
179.332	15.6021
182.225	26.458
185.117	23.9371
188.01	0.961029
190.903	18.701
193.796	10.6054
196.688	9.30102
199.581	4.66742
202.474	11.0972
205.366	0.463409
208.259	11.268
211.152	7.09186
214.044	8.0899
216.937	0.328033
219.83	9.8356
222.722	5.33188
225.615	27.5383
228.508	8.58948
231.401	11.3945
234.293	25.1089
237.186	15.3404
240.079	37.4383
242.971	57.1089
245.864	35.7247
248.757	29.8031
251.649	46.8229
254.542	40.8959
257.435	29.2418
260.328	42.5266
263.22	44.3641
266.113	44.5182
269.006	43.4618
271.898	48.2678
274.791	46.3994
277.684	25.0129
280.577	33.2794
283.469	29.1469
286.362	18.0342
289.255	7.58758
292.147	19.9424
295.04	1.29541
297.933	4.62015
300.825	20.0632
303.718	3.09323
306.611	0.152924
309.503	12.1141
312.396	21.2541
315.289	8.67285
318.182	20.431
321.074	22.2865
323.967	25.7278
326.86	47.9204
329.752	28.7805
332.645	27.7036
335.538	28.6693
338.43	19.2221
341.323	23.462
344.216	32.963
347.109	28.2243
350.001	44.8762
352.894	33.2605
355.787	31.675
358.679	5.35651
361.572	20.3525
364.465	15.4913
367.358	6.54407
370.25	18.4909
373.143	14.3187
376.036	18.1346
378.928	5.19995
381.821	1.05603
384.714	39.9598
387.606	1.27313
390.499	16.1476
393.392	5.99426
396.284	42.0675
399.177	12.5918
402.07	41.7675
404.963	53.2461
407.855	62.4288
410.748	75.9202
413.641	73.1316
416.533	75.5894
419.426	106.589
422.319	114.372
425.212	150.046
428.104	142.936
430.997	148.891
433.89	152.537
436.782	150.443
439.675	158.318
442.568	118.415
445.461	145.177
448.353	95.6934
451.246	88.5747
454.139	54.0588
457.031	31.1524
459.924	46.4078
462.817	40.8658
465.709	3.47888
468.602	39.0709
471.495	28.8145
474.387	24.7164
477.28	20.8166
480.173	27.283
483.066	31.0386
485.958	24.7199
488.851	44.8262
491.744	56.6624
494.636	92.4691
497.529	98.1434
500.422	96.0438
503.315	148.562
506.207	151.3
509.1	172.516
511.993	156.054
514.885	145.03
517.778	175.615
520.671	120.129
523.563	106.124
526.456	89.3568
529.349	80.9595
532.241	66.726
535.134	49.1755
538.027	16.3551
540.92	5.98596
543.812	54.1341
546.705	39.9587
549.598	22.1355
552.49	13.2203
555.383	29.9086
558.276	7.37628
561.168	0.401367
564.061	1.83203
566.954	14.6402
569.847	4.04999
572.739	4.94452
575.632	24.7898
578.525	2.90662
581.417	0.636292
584.31	3.82385
587.203	10.6546
590.096	11.03
592.988	0.714966
595.881	6.55633
598.774	3.54443
601.666	27.0037
604.559	7.15222
607.452	22.298
610.345	4.81085
613.237	6.0921
616.13	5.6048
619.023	7.68628
621.915	5.01038
624.808	13.4161
627.701	10.5824
630.593	43.2574
633.486	56.5458
636.379	23.3525
639.271	51.4203
642.164	50.0883
645.057	64.5053
647.95	51.0524
650.842	94.6354
653.735	79.5459
656.628	103.403
659.52	124.253
662.413	105.332
665.306	133.282
668.198	128.697
671.091	130.764
673.984	127.394
676.877	137.207
679.769	106.555
682.662	100.436
685.555	106.991
688.447	95.5216
691.34	75.1282
694.233	78.4613
697.125	63.1756
700.018	68.4393
702.911	39.3524
705.804	65.3104
708.696	38.0278
711.589	44.0671
714.482	38.0228
717.374	43.1304
720.267	26.5442
723.16	18.194
726.053	27.5274
728.945	13.7949
731.838	41.8084
734.731	20.0443
737.623	23.8391
740.516	6.4754
743.409	23.561
746.302	13.418
749.194	22.9987
752.087	13.0095
754.98	32.9482
757.872	22.8998
760.765	13.2269
763.658	1.43652
766.55	1.31256
769.443	8.11096
772.336	9.76392
775.229	10.6362
778.121	18.5141
781.014	11.07
783.907	16.441
786.799	27.7827
789.692	19.0949
792.585	6.83252
795.477	41.9873
798.37	29.3955
801.263	26.131
804.155	21.7826
807.048	24.8803
809.941	17.9003
812.834	16.557
815.726	37.8227
818.619	30.376
821.512	41.2671
824.404	31.5303
827.297	33.5717
830.19	35.5662
833.082	29.0794
835.975	19.5087
838.868	23.383
841.761	25.2459
844.653	31.2069
847.546	1.57214
850.439	24.8192
853.331	8.46985
856.224	20.1562
859.117	8.78546
862.01	14.4487
864.902	25.022
867.795	21.6134
870.688	15.0812
873.58	16.1346
876.473	2.29224
879.366	2.71204
882.258	24.3047
885.151	26.5599
888.044	11.8703
890.937	22.2965
893.829	20.629
896.722	5.83423
899.615	45.7473
902.507	22.0891
905.4	42.9075
908.293	20.5765
911.185	25.149
914.078	17.3539
916.971	0.2854
919.864	12.9954
922.756	36.3005
925.649	12.1449
928.542	32.9316
931.434	29.9453
934.327	23.1609
937.22	43.2676
940.112	42.3987
943.005	60.4616
945.898	44.5878
948.79	36.0346
951.683	34.1277
954.576	34.4514
957.469	30.9367
960.361	0.268921
963.254	24.2296
966.147	27.0259
969.039	17.0823
971.932	17.6281
974.825	14.4364
977.717	4.06934
980.61	2.10486
983.503	24.433
986.396	8.08752
989.288	23.3126
992.181	44.2195
995.074	5.21106
997.966	2.12146
1000.86	24.1419
1003.75	24.603
1006.64	39.716
1009.54	46.4075
1012.43	39.2784
1015.32	53.5228
1018.22	66.8138
1021.11	81.9034
1024	70.5005
1026.89	65.3892
1029.79	51.2432
1032.68	68.8113
1035.57	63.8826
1038.46	50.1982
1041.36	46.041
1044.25	67.385
1047.14	63.4004
1050.04	55.8589
1052.93	70.8666
1055.82	57.7468
1058.71	54.6376
1061.61	55.8351
1064.5	29.7078
1067.39	34.6909
1070.28	17.1048
1073.18	29.046
1076.07	2.22278
1078.96	13.7959
1081.86	0.56897
1084.75	8.27008
1087.64	38.0821
1090.53	11.1791
1093.43	13.7895
1096.32	15.0428
1099.21	20.0909
1102.1	25.6803
1105	20.6526
1107.89	5.21619
1110.78	34.4823
1113.67	5.5639
1116.57	10.0044
1119.46	25.8997
1122.35	24.6427
1125.24	38.8648
1128.14	20.2943
1131.03	45.3171
1133.92	20.7178
1136.82	22.6595
1139.71	27.5968
1142.6	44.2801
1145.49	43.644
1148.39	18.9785
1151.28	29.2606
1154.17	23.8251
1157.07	15.0578
1159.96	29.8057
1162.85	19.9844
1165.74	18.6154
1168.64	13.4574
1171.53	45.0457
1174.42	19.0344
1177.31	23.0861
1180.21	41.7523
1183.1	1.52026
1185.99	22.7031
1188.88	23.9812
1191.78	18.9997
1194.67	12.8134
1197.56	29.0253
1200.46	32.2149
1203.35	30.8149
1206.24	24.744
1209.13	36.8708
1212.03	24.4801
1214.92	15.8756
1217.81	18.4717
1220.7	42.3479
1223.6	34.9827
1226.49	29.8157
1229.38	46.5205
1232.28	47.6237
1235.17	24.0608
1238.06	21.9151
1240.95	23.1669
1243.85	46.3394
1246.74	13.5848
1249.63	32.8577
1252.52	47.3781
1255.42	36.6753
1258.31	36.9824
1261.2	36.3413
1264.1	18.9523
1266.99	35.7739
1269.88	54.8004
1272.77	45.686
1275.67	41.2983
1278.56	29.3112
1281.45	12.4218
1284.34	10.2647
1287.24	26.5251
1290.13	58.0735
1293.02	36.0603
1295.91	5.54211
1298.81	19.7172
1301.7	25.4617
1304.59	29.33
1307.48	0
