Measurement: Raman, 785 nm, unoriented, Raman Data Processed
Mineral: Gladiusite
Rruff sample: R070432
Ideal chemistry: Fe^3+^_2_Fe^2+^_4_PO_4_(OH)_11_H_2_O
Locality: Kovdor mine, Kovdor Massif, Kola Peninsula, Murmanskaja Oblast', Northern Region, Russia
Source: Michael Scott
Description: Bundles of olive green fibers on dolomite matrix
Raman shift (cm-1)	intensity
178.883	0
181.776	2.59363
184.669	16.5725
187.561	40.9647
190.454	26.5751
193.347	39.0311
196.239	27.1768
199.132	26.572
202.025	35.7609
204.917	33.2363
207.81	14.3956
210.703	1.75794
213.596	20.0869
216.488	27.5125
219.381	0.520874
222.274	35.7953
225.166	14.8215
228.059	25.6581
230.952	53.5629
233.845	96.3113
236.737	55.7419
239.63	99.7015
242.523	69.4215
245.415	69.261
248.308	118.458
251.201	82.7502
254.093	143.493
256.986	168.499
259.879	176.31
262.772	180.458
265.664	214.821
268.557	227.615
271.45	222.122
274.342	207.6
277.235	228.139
280.128	236.13
283.02	226.365
285.913	270.95
288.806	220.006
291.699	242.146
294.591	253.335
297.484	216.934
300.377	175.478
303.269	206.284
306.162	118.65
309.055	173.829
311.947	109.737
314.84	133.815
317.733	125.72
320.625	103.941
323.518	99.1666
326.411	103.761
329.304	69.3574
332.196	77.6346
335.089	67.6154
337.982	20.9123
340.874	44.66
343.767	8.81775
346.66	3.95422
349.553	6.71301
352.445	28.6437
355.338	26.7959
358.231	25.2469
361.123	12.4707
364.016	13.6648
366.909	8.96777
369.801	31.6066
372.694	40.1067
375.587	35.0928
378.479	26.5809
381.372	41.3973
384.265	7.25781
387.158	8.21655
390.05	42.772
392.943	42.7721
395.836	28.4432
398.728	22.2811
401.621	3.94751
404.514	19.4952
407.406	9.91956
410.299	15.4243
413.192	59.688
416.085	67.0067
418.977	78.2383
421.87	22.5874
424.763	64.1342
427.655	23.3428
430.548	54.0133
433.441	72.0701
436.334	56.4208
439.226	33.2521
442.119	50.4948
445.012	57.4552
447.904	40.204
450.797	32.394
453.69	34.1987
456.582	18.4225
459.475	14.6626
462.368	4.35828
465.26	23.5049
468.153	59.1401
471.046	7.2251
473.939	25.355
476.831	18.6183
479.724	39.5438
482.617	39.886
485.509	73.1063
488.402	84.3094
491.295	92.7296
494.188	114.375
497.08	123.865
499.973	143.48
502.866	149.551
505.758	135.898
508.651	178.6
511.544	173.216
514.436	175.23
517.329	170.692
520.222	212.967
523.115	154.089
526.007	168.749
528.9	172.36
531.793	163.433
534.685	141.849
537.578	117.495
540.471	107.042
543.363	119.12
546.256	88.1116
549.149	58.511
552.041	102.436
554.934	51.5148
557.827	42.4598
560.72	30.3551
563.612	24.2076
566.505	13.843
569.398	37.1488
572.29	5.08887
575.183	15.4851
578.076	40.2924
580.968	13.6805
583.861	23.5701
586.754	7.83337
589.646	42.8519
592.539	2.34088
595.432	31.2993
598.325	0.584717
601.217	73.9664
604.11	48.1257
607.003	30.111
609.895	62.615
612.788	30.4269
615.681	27.1222
618.573	43.9127
621.466	61.077
624.359	4.24237
627.252	37.9092
630.144	42.2428
633.037	33.4574
635.93	54.1086
638.822	31.2189
641.715	26.2774
644.608	6.69482
647.5	5.07165
650.393	11.433
653.286	29.5902
656.179	61.4019
659.071	27.2682
661.964	4.78326
664.857	6.84503
667.75	11.9838
670.642	41.6773
673.535	36.7968
676.428	48.9122
679.32	25.5944
682.213	31.6921
685.106	55.277
687.998	31.462
690.891	38.2756
693.784	37.6274
696.677	41.082
699.569	69.9757
702.462	37.6101
705.355	31.3268
708.247	41.9042
711.14	39.5333
714.033	58.7316
716.925	46.3698
719.818	52.4265
722.711	59.4736
725.604	29.2363
728.496	30.9092
731.389	70.2982
734.282	24.556
737.174	48.0248
740.067	34.059
742.96	36.4588
745.852	1.71985
748.745	31.3531
751.638	5.65479
754.53	4.78589
757.423	29.1031
760.316	56.8497
763.209	4.96576
766.101	16.126
768.994	0.590271
771.887	20.561
774.779	0.927734
777.672	18.3951
780.565	7.35901
783.457	15.7127
786.35	31.258
789.243	48.5575
792.136	32.7487
795.028	6.77124
797.921	14.0248
800.814	31.9038
803.706	39.2439
806.599	12.1527
809.492	14.962
812.385	21.9548
815.277	22.6422
818.17	24.2306
821.063	45.2514
823.955	46.9246
826.848	12.8777
829.741	12.0637
832.633	21.5242
835.526	16.8043
838.419	44.5859
841.312	30.7594
844.204	54.7458
847.097	25.6456
849.99	14.2909
852.882	22.5287
855.775	21.9606
858.668	17.9188
861.56	28.5375
864.453	35.0403
867.346	44.8533
870.239	67.7333
873.131	45.939
876.024	65.9907
878.917	27.9041
881.809	51.5762
884.702	6.45215
887.595	21.7165
890.487	44.407
893.38	33.2668
896.273	11.2465
899.165	42.1075
902.058	27.3649
904.951	20.7778
907.844	37.5528
910.736	41.7777
913.629	8.58856
916.522	40.9381
919.414	21.4227
922.307	5.27918
925.2	36.1643
928.092	40.9121
930.985	4.86322
933.878	3.08826
936.771	33.0781
939.663	26.7154
942.556	17.7163
945.449	27.6932
948.341	3.00324
951.234	13.5751
954.127	17.9144
957.019	50.8503
959.912	79.2634
962.805	59.8341
965.698	84.9915
968.59	30.2647
971.483	109.442
974.376	86.1487
977.268	110.848
980.161	55.4365
983.054	83.6395
985.947	38.413
988.839	22.0582
991.732	50.3209
994.625	7.59943
997.517	15.733
1000.41	20.9496
1003.3	4.68225
1006.2	55.123
1009.09	31.9817
1011.98	25.559
1014.87	54.51
1017.77	32.7082
1020.66	47.9278
1023.55	51.8393
1026.44	29.4305
1029.34	59.6793
1032.23	52.5538
1035.12	15.1297
1038.02	69.5967
1040.91	21.9266
1043.8	9.04529
1046.69	27.5221
1049.59	34.2368
1052.48	19.864
1055.37	19.2492
1058.26	8.83893
1061.16	44.7844
1064.05	25.004
1066.94	17.3033
1069.84	29.5298
1072.73	2.27087
1075.62	39.7663
1078.51	32.7348
1081.41	42.0369
1084.3	46.4006
1087.19	21.2674
1090.08	35.2402
1092.98	10.6118
1095.87	2.46741
1098.76	20.3539
1101.65	54.6167
1104.55	13.3187
1107.44	50.1315
1110.33	78.3662
1113.22	33.3096
1116.12	42.5751
1119.01	58.6483
1121.9	30.0061
1124.8	35.1635
1127.69	32.2606
1130.58	61.6237
1133.47	36.4486
1136.37	20.2857
1139.26	43.3135
1142.15	2.52332
1145.05	33.6081
1147.94	43.9149
1150.83	61.6473
1153.72	42.4503
1156.62	14.5742
1159.51	36.2119
1162.4	35.102
1165.29	49.5843
1168.19	35.3387
1171.08	12.5544
1173.97	13.4369
1176.87	27.2471
1179.76	17.4572
1182.65	27.3516
1185.54	26.1721
1188.43	20.7762
1191.33	15.2866
1194.22	11.4904
1197.11	34.4075
1200.01	28.3607
1202.9	12.382
1205.79	19.9369
1208.68	12.1646
1211.58	32.469
1214.47	19.5404
1217.36	37.2542
