Measurement: Raman, 532 nm, unoriented, Raman Data Processed
Mineral: Glass-(Eu)
Rruff sample: R110079
Locality: Synthetic
Source: Elizabeth Cairns, University of Edinburgh
Description: Pale yellow glass fragment
Measured chemistry: CaO 21.74%, Eu_2_O_3_ 23.09%, Al_2_O_3_ 13.24%, SiO_2_ 41.93%, Ca_16_Eu_6_Al_11_Si_29_O_100_
Raman shift (cm-1)	intensity
179.202	7748.03
182.094	7808.08
184.987	7825.24
187.88	7636.55
190.773	7549.42
193.665	7414.49
196.558	7369.46
199.451	7295.61
202.343	7280.13
205.236	7232.73
208.129	7155.4
211.021	7077.97
213.914	7078.75
216.807	7011.72
219.699	6982.99
222.592	6944.66
225.485	6982.66
228.377	6901.67
231.27	6929.45
234.163	6869.19
237.056	6946.73
239.948	6957.02
242.841	6976.38
245.734	6922.37
248.626	6976.96
251.519	7014.43
254.412	7007.65
257.305	7016.38
260.197	7104.14
263.09	7105.03
265.983	7192.89
268.875	7192.1
271.768	7224.85
274.661	7285.5
277.553	7257
280.446	7416.15
283.339	7298.8
286.232	7325.71
289.124	7369.75
292.017	7400.74
294.91	7465.69
297.802	7445.42
300.695	7493.67
303.588	7524.14
306.481	7516.46
309.373	7507.44
312.266	7503.62
315.159	7495.22
318.051	7474.18
320.944	7432.17
323.837	7459.76
326.729	7349.38
329.622	7396.69
332.515	7241.69
335.408	7273.64
338.3	7237.21
341.193	7201.65
344.086	7134.44
346.978	7055.51
349.871	7011.99
352.764	6916.98
355.656	6844.39
358.549	6793.39
361.442	6698.32
364.334	6628.64
367.227	6532.8
370.12	6385.01
373.012	6358.15
375.905	6215.83
378.798	6131.42
381.691	5991.19
384.583	5908.48
387.476	5825.82
390.369	5667.9
393.261	5660.74
396.154	5500.08
399.047	5391.86
401.94	5290.57
404.832	5157.25
407.725	5117.98
410.618	4921.45
413.51	4905.2
416.403	4812.76
419.296	4696.69
422.188	4556.9
425.081	4481.06
427.974	4409.33
430.866	4258.94
433.759	4122.48
436.652	4040.26
439.545	3925.79
442.437	3844.57
445.33	3831.05
448.223	3667.97
451.115	3615.73
454.008	3538.38
456.901	3465.84
459.793	3388.18
462.686	3273
465.579	3230.87
468.472	3154.49
471.364	3076.88
474.257	3086.17
477.15	2999.44
480.042	2940.09
482.935	2839.98
485.828	2901.43
488.721	2859.14
491.613	2762.77
494.506	2723.92
497.399	2701.22
500.291	2669.64
503.184	2600.67
506.077	2625.33
508.969	2565.29
511.862	2597.46
514.755	2546.9
517.648	2556.43
520.54	2551.34
523.433	2546.33
526.326	2617.01
529.218	2603.17
532.111	2537.7
535.004	2598.61
537.896	2584.11
540.789	2606.69
543.682	2609.79
546.575	2652.55
549.467	2661.36
552.36	2697.1
555.253	2764.35
558.145	2803.02
561.038	2817.01
563.931	2864.24
566.823	2920.15
569.716	2926.65
572.609	3018.47
575.502	3111.76
578.394	3152.63
581.287	3213.39
584.18	3238.96
587.072	3341.12
589.965	3402.07
592.858	3499.68
595.75	3575.77
598.643	3650.81
601.536	3814.6
604.428	3830.56
607.321	3949.91
610.214	4099.88
613.107	4132.25
615.999	4267.06
618.892	4402.69
621.785	4477.16
624.677	4554.19
627.57	4732.95
630.463	4822.35
633.356	4949.69
636.248	5044.26
639.141	5155.65
642.034	5252.02
644.926	5383.35
647.819	5474.81
650.712	5615.01
653.604	5644.23
656.497	5859.97
659.39	5912.81
662.283	6005.79
665.175	6010.34
668.068	6115.21
670.961	6195.3
673.853	6218.1
676.746	6265.81
679.639	6366.53
682.531	6416.44
685.424	6412.04
688.317	6517.73
691.21	6583.94
694.102	6488.53
696.995	6563.27
699.888	6535.86
702.78	6478.86
705.673	6530.84
708.566	6559.85
711.458	6593.71
714.351	6493.87
717.244	6503.85
720.136	6504.35
723.029	6456.88
725.922	6527.82
728.815	6508.95
731.707	6488.3
734.6	6416.5
737.493	6381.3
740.385	6303.4
743.278	6293.44
746.171	6245.47
749.063	6238
751.956	6194.97
754.849	6156.31
757.742	6153.65
760.634	6104.09
763.527	6035.9
766.42	6034.75
769.312	6034.18
772.205	5981.56
775.098	5830.69
777.99	5816.05
780.883	5851.09
783.776	5774.81
786.669	5808.38
789.561	5684.99
792.454	5643.64
795.347	5656.46
798.239	5613.85
801.132	5568
804.025	5493.18
806.918	5465.83
809.81	5441.5
812.703	5452.35
815.596	5371.56
818.488	5372.27
821.381	5329.52
824.274	5300.01
827.166	5267.63
830.059	5202.02
832.952	5272.09
835.845	5208.69
838.737	5193.03
841.63	5176.32
844.523	5154.64
847.415	5131.2
850.308	5063.82
853.201	5093.41
856.093	5127.31
858.986	5081.19
861.879	5112.72
864.771	5080.19
867.664	5050.09
870.557	5024.64
873.45	5113.16
876.342	5058.33
879.235	5021.39
882.128	4988.02
885.02	5027.59
887.913	5068.16
890.806	5025.04
893.698	5013.6
896.591	5011.29
899.484	5019.46
902.377	4987.05
905.269	5018.92
908.162	5017.47
911.055	5037.25
913.947	5061.85
916.84	5058.6
919.733	5038.2
922.625	5018.2
925.518	5057.4
928.411	5060.52
931.304	4980.47
934.196	4945.7
937.089	4975.28
939.982	5013.77
942.875	4958.51
945.767	5006.57
948.66	4946.46
951.553	4981.6
954.445	5054.5
957.338	4997.88
960.231	4972.34
963.123	5027.36
966.016	5070.49
968.909	5080.45
971.802	5020.81
974.694	5053.69
977.587	5114.07
980.48	5056.64
983.372	5138.15
986.265	5108.94
989.158	5140.63
992.05	5165.29
994.943	5167.37
997.836	5188.21
1000.73	5203.09
1003.62	5193.64
1006.51	5255.19
1009.41	5278.79
1012.3	5311.01
1015.19	5333.89
1018.09	5390.6
1020.98	5412.72
1023.87	5497.11
1026.76	5497.19
1029.66	5498.64
1032.55	5543.86
1035.44	5577.24
1038.33	5686.23
1041.23	5742.22
1044.12	5727.53
1047.01	5803.61
1049.9	5827.05
1052.8	5825.33
1055.69	5975.02
1058.58	5985.01
1061.47	6017.94
1064.37	6059.09
1067.26	6140.59
1070.15	6233.32
1073.05	6231.08
1075.94	6327.66
1078.83	6330.65
1081.72	6362.3
1084.62	6413.61
1087.51	6535.85
1090.4	6580.06
1093.3	6601.99
1096.19	6699.82
1099.08	6758.94
1101.97	6804.17
1104.87	6897.59
1107.76	6928.61
1110.65	7076.03
1113.54	7161.34
1116.44	7225.1
1119.33	7311.44
1122.22	7438.95
1125.12	7463.1
1128.01	7585.99
1130.9	7600.2
1133.79	7673.3
1136.68	7840.47
1139.58	8009.31
1142.47	8064.61
1145.36	8153.4
1148.26	8289.35
1151.15	8468.19
1154.04	8582.6
1156.93	8713.95
1159.83	8889.23
1162.72	9131.7
1165.61	9230.88
1168.51	9344.31
1171.4	9587.88
1174.29	9705.87
1177.18	9986.33
1180.08	10089.8
1182.97	10370.2
1185.86	10572.9
1188.75	10898.9
1191.65	11059.5
1194.54	11263.2
1197.43	11518.9
1200.33	11773.5
1203.22	12035.2
1206.11	12481.4
1209	12687.9
1211.9	13126.3
1214.79	13399.2
1217.68	13708.8
1220.57	13913.6
1223.47	14368.3
1226.36	14855.6
1229.25	15186.9
1232.14	15638.7
1235.04	16094.3
1237.93	16414.5
1240.82	17033.9
1243.71	17446.2
1246.61	17990.6
1249.5	18482.9
1252.39	19135.9
1255.29	19655.6
1258.18	20479.5
1261.07	21017.5
1263.96	21743.8
1266.86	22491.7
1269.75	23257.3
1272.64	23934.4
1275.54	24916.2
1278.43	25728
1281.32	26525.3
1284.21	27432
1287.11	28384
1290	29375.7
1292.89	30446.9
1295.78	31598.3
1298.68	32789.7
1301.57	33879.4
