Measurement: Raman, 780 nm, unoriented, Raman Data Processed
Mineral: Glass-(Lu)
Rruff sample: R110087
Locality: Synthetic
Source: Elizabeth Cairns, University of Edinburgh
Description: Colorless glass fragment
Measured chemistry: CaO 18.91%, Lu_2_O_3_ 22.31%, Al_2_O_3_ 11.49%, SiO_2_ 47.29%, Ca_14_Lu_5_Al_9_Si_33_O_100_
Raman shift (cm-1)	intensity
113.299	259736
116.674	265797
120.048	271429
123.423	277621
126.798	282891
130.173	287979
133.548	293112
136.923	297842
140.297	302600
143.672	306872
147.047	310609
150.422	313786
153.797	316850
157.171	319578
160.546	321527
163.921	323479
167.296	323879
170.671	324142
174.046	324591
177.42	324874
180.795	323214
184.17	321723
187.545	319496
190.92	317020
194.294	314928
197.669	311925
201.044	307346
204.419	303804
207.794	300467
211.168	296420
214.543	292134
217.918	287547
221.293	283401
224.668	279004
228.043	275112
231.417	271255
234.792	267568
238.167	264185
241.542	260543
244.917	257949
248.292	255876
251.666	253618
255.041	250853
258.416	249874
261.791	248813
265.166	248427
268.54	248056
271.915	247755
275.29	247867
278.665	248557
282.04	249649
285.414	249803
288.789	251916
292.164	253605
295.539	254905
298.914	257430
302.288	258808
305.663	260879
309.038	263649
312.413	266040
315.788	268051
319.163	270678
322.537	272345
325.912	274068
329.287	275907
332.662	277567
336.037	278393
339.411	280283
342.786	280800
346.161	281102
349.536	281410
352.911	280476
356.286	279820
359.66	278656
363.035	277144
366.41	274858
369.785	273819
373.16	270837
376.534	268414
379.909	265646
383.284	262864
386.659	260816
390.034	257714
393.409	255025
396.783	252020
400.158	249237
403.533	246891
406.908	244023
410.283	241003
413.658	238508
417.032	236579
420.407	233975
423.782	231625
427.157	229100
430.532	226813
433.906	224738
437.281	222552
440.656	220411
444.031	218674
447.406	216598
450.781	214407
454.155	212719
457.53	210742
460.905	209176
464.28	207294
467.655	205371
471.029	203248
474.404	201707
477.779	199549
481.154	197409
484.529	195428
487.904	192906
491.278	190834
494.653	188777
498.028	186454
501.403	183981
504.778	182252
508.152	179219
511.527	176504
514.902	174110
518.277	170969
521.652	168475
525.026	164948
528.401	162730
531.776	159748
535.151	156676
538.526	153644
541.9	150684
545.275	147496
548.65	144362
552.025	141480
555.4	138645
558.775	135744
562.149	132316
565.524	129343
568.899	126508
572.274	123151
575.649	120600
579.024	117653
582.398	114562
585.773	111805
589.148	109009
592.523	106102
595.898	103284
599.273	100815
602.647	97992.3
606.022	95382.3
609.397	92851.4
612.772	90338.1
616.146	88229
619.521	85546
622.896	83451.7
626.271	81077.2
629.646	78949.4
633.021	76993.3
636.395	74786
639.77	72987.4
643.145	71074.2
646.52	69033
649.895	67403
653.269	65545.2
656.644	63760.9
660.019	62248.2
663.394	60629.1
666.769	59081.4
670.144	57627.2
673.518	56266.9
676.893	54993.7
680.268	53809.2
683.643	52424.3
687.018	51195.1
690.393	50225.6
693.767	49002.8
697.142	47844.7
700.517	46933.7
703.892	45901.4
707.267	44820.1
710.641	44011.3
714.016	43002.5
717.391	42106.4
720.766	41310.3
724.141	40466.5
727.515	39613.2
730.89	38935.9
734.265	38102.2
737.64	37219.6
741.015	36637.3
744.39	35788.9
747.764	35184.4
751.139	34514.4
754.514	33913.7
757.889	33117.9
761.264	32353.7
764.639	31835.6
768.013	31430.6
771.388	30740
774.763	30136.7
778.138	29736.1
781.513	29233.5
784.887	28585.4
788.262	28029.6
791.637	27868.7
795.012	27272.1
798.387	26639.7
801.761	26260.9
805.136	25588.8
808.511	25274.2
811.886	24989.4
815.261	24321
818.636	23993.4
822.01	23565
825.385	23104.1
828.76	22730.8
832.135	22410.2
835.51	21914.4
838.885	21530.7
842.259	21087.1
845.634	20824.7
849.009	20374.3
852.384	19922.8
855.759	19596.5
859.133	19271.4
862.508	19027.9
865.883	18713
869.258	18315.7
872.633	18057.2
876.007	17738.7
879.382	17423
882.757	17078.3
886.132	16969.7
889.507	16421.1
892.881	16210.2
896.256	15798.5
899.631	15722.7
903.006	15305.3
906.381	15127.6
909.756	14924.7
913.13	14548.9
916.505	14367.5
919.88	14173.2
923.255	13880.7
926.63	13627.8
930.005	13444.1
933.379	13268.5
936.754	13083
940.129	12801.2
943.504	12517.5
946.879	12291.7
950.253	12141.2
953.628	12089.9
957.003	11767.5
960.378	11610.4
963.753	11409.4
967.128	11309.8
970.502	11099.4
973.877	10904.4
977.252	10755.2
980.627	10577.7
984.002	10481.9
987.376	10252.3
990.751	10160.5
994.126	9996.66
997.501	9844.9
1000.88	9728.34
1004.25	9657.51
1007.62	9538.44
1011	9391.14
1014.38	9202.09
1017.75	9180.71
1021.12	9044.74
1024.5	8889.94
1027.87	8777.7
1031.25	8775.59
1034.62	8651.58
1038	8600.34
1041.37	8405.69
1044.75	8339.28
1048.12	8245.98
1051.5	8150.39
1054.87	8137.59
1058.25	8041.98
1061.62	7933.31
1065	7777.54
1068.37	7784.07
1071.75	7716.36
1075.12	7542.32
1078.5	7568.99
1081.87	7517.68
1085.25	7445.47
1088.62	7409.06
1092	7361.36
1095.37	7371.48
1098.74	7239.16
1102.12	7235.48
1105.49	7163.25
1108.87	7166.68
1112.24	7123.63
1115.62	7102.31
1118.99	7021.6
1122.37	7084.01
1125.74	7048.5
1129.12	7045.82
1132.49	6960.69
1135.87	7051.76
1139.24	7025.77
1142.62	7023.78
1145.99	7070.88
1149.37	7053.77
1152.74	7058.41
1156.12	7080.97
1159.49	7080.81
1162.87	7131.34
1166.24	7132.16
1169.62	7137.9
1172.99	7145.37
1176.37	7216.86
1179.74	7261.32
1183.12	7258.43
1186.49	7276.33
1189.87	7320.95
1193.24	7387.02
1196.62	7315.48
1199.99	7406.47
1203.37	7410.75
1206.74	7432.73
1210.11	7434.44
1213.49	7498.46
1216.86	7479.37
1220.24	7510.07
1223.61	7592.63
1226.99	7636.25
1230.36	7555.77
1233.74	7502.81
1237.11	7566
1240.49	7553.54
1243.86	7561.94
1247.24	7602.69
1250.61	7638.56
1253.99	7586.86
1257.36	7591.19
1260.74	7641.04
1264.11	7711.24
1267.49	7654.13
1270.86	7598.64
1274.24	7669.53
1277.61	7738.4
1280.98	7710.05
1284.36	7743.85
