Measurement: Raman, 780 nm, unoriented, Raman Data Processed
Mineral: Glass-(Eu)
Rruff sample: R110079
Locality: Synthetic
Source: Elizabeth Cairns, University of Edinburgh
Description: Pale yellow glass fragment
Measured chemistry: CaO 21.74%, Eu_2_O_3_ 23.09%, Al_2_O_3_ 13.24%, SiO_2_ 41.93%, Ca_16_Eu_6_Al_11_Si_29_O_100_
Raman shift (cm-1)	intensity
103.174	4087.36
106.549	4123.73
109.924	4120.73
113.299	4150.11
116.674	4180.07
120.048	4174.63
123.423	4203.41
126.798	4192.73
130.173	4220.35
133.548	4209.82
136.923	4223.52
140.297	4236.64
143.672	4237.81
147.047	4248.01
150.422	4243.15
153.797	4249.74
157.171	4240.38
160.546	4240.23
163.921	4236.79
167.296	4226.16
170.671	4210.11
174.046	4187.72
177.42	4172
180.795	4151.13
184.17	4131.5
187.545	4096.23
190.92	4068.65
194.294	4050.5
197.669	4021.51
201.044	3971.58
204.419	3949.72
207.794	3927.22
211.168	3889.5
214.543	3853.65
217.918	3827.72
221.293	3799.19
224.668	3774.03
228.042	3739.17
231.417	3710.7
234.792	3689.56
238.167	3666.3
241.542	3633.85
244.917	3620.54
248.291	3622.78
251.666	3594.62
255.041	3561.46
258.416	3551.32
261.791	3561.94
265.166	3551.63
268.54	3539.02
271.915	3544.24
275.29	3544.48
278.665	3541.98
282.04	3553.26
285.414	3554.36
288.789	3563.98
292.164	3568.72
295.539	3570.72
298.914	3597.85
302.288	3579.59
305.663	3605.22
309.038	3619.79
312.413	3629.91
315.788	3637.96
319.163	3655.14
322.537	3671.66
325.912	3678.66
329.287	3690.5
332.662	3702.12
336.037	3716.86
339.411	3723.92
342.786	3726.91
346.161	3726.19
349.536	3738.51
352.911	3736.76
356.286	3735.24
359.66	3709.74
363.035	3705.14
366.41	3679.87
369.785	3690.85
373.16	3652.7
376.534	3619.2
379.909	3596.53
383.284	3573
386.659	3553.17
390.034	3527.27
393.409	3493.6
396.783	3465.01
400.158	3441.26
403.533	3405.57
406.908	3397.56
410.283	3370.74
413.658	3331.92
417.032	3318.54
420.407	3289.23
423.782	3271.17
427.157	3257.03
430.532	3222.03
433.906	3213.87
437.281	3199.74
440.656	3175.78
444.031	3162.41
447.406	3148.9
450.781	3138.28
454.155	3119.72
457.53	3101.15
460.905	3099.52
464.28	3078.56
467.654	3057.66
471.029	3051.49
474.404	3045.38
477.779	3021.34
481.154	3011.05
484.529	2992.98
487.903	2983.31
491.278	2973.27
494.653	2961.24
498.028	2949.61
501.403	2940.99
504.777	2934.06
508.152	2915.88
511.527	2903.11
514.902	2890.51
518.277	2875.08
521.652	2849.2
525.026	2820.75
528.401	2816.09
531.776	2789.81
535.151	2773.77
538.526	2748.84
541.9	2731.53
545.275	2707.74
548.65	2677.3
552.025	2659.17
555.4	2660.38
558.775	2630.93
562.149	2610.96
565.524	2591.86
568.899	2566.59
572.274	2544.28
575.649	2522.6
579.024	2481.78
582.398	2462.68
585.773	2414.02
589.148	2390
592.523	2357.61
595.898	2326.58
599.272	2291.7
602.647	2262.2
606.022	2233.16
609.397	2199.82
612.772	2179.61
616.146	2146.48
619.521	2129.89
622.896	2112.65
626.271	2097.19
629.646	2075.59
633.021	2059.04
636.395	2041.88
639.77	2031.61
643.145	2013.22
646.52	1992.83
649.895	1978.72
653.269	1955.9
656.644	1941.84
660.019	1932.03
663.394	1909.71
666.769	1900.26
670.144	1888.95
673.518	1866.7
676.893	1847.8
680.268	1841.13
683.643	1824.08
687.018	1807.94
690.393	1793.16
693.767	1780.8
697.142	1763.32
700.517	1757.12
703.892	1743.69
707.266	1729.04
710.641	1724.9
714.016	1709.31
717.391	1706.62
720.766	1692.37
724.141	1675.74
727.515	1663.99
730.89	1665.47
734.265	1646.15
737.64	1633.78
741.015	1612.87
744.389	1610.08
747.764	1593.1
751.139	1582.51
754.514	1574.06
757.889	1564.11
761.264	1543.17
764.638	1529.86
768.013	1515.65
771.388	1502.1
774.763	1494.67
778.138	1487
781.513	1473.09
784.887	1467.2
788.262	1456.03
791.637	1445.24
795.012	1439.22
798.387	1420.48
801.761	1425.69
805.136	1415.25
808.511	1416.34
811.886	1413
815.261	1410.55
818.635	1419.34
822.01	1424.91
825.385	1432.85
828.76	1438.75
832.135	1444.18
835.51	1465.21
838.884	1479.07
842.259	1485.43
845.634	1505.75
849.009	1520.47
852.384	1544.63
855.759	1564
859.133	1581.53
862.508	1587.09
865.883	1605.93
869.258	1619.51
872.633	1634.14
876.007	1658.44
879.382	1661.73
882.757	1671.76
886.132	1685.27
889.507	1686.32
892.881	1706.03
896.256	1705.48
899.631	1716.02
903.006	1723.96
906.381	1737.45
909.756	1740.56
913.13	1750.16
916.505	1750.78
919.88	1764.23
923.255	1773.4
926.63	1761.1
930.005	1762.24
933.379	1782.13
936.754	1773.79
940.129	1771.46
943.504	1768.22
946.879	1773.84
950.253	1778.37
953.628	1782.8
957.003	1776.55
960.378	1782.31
963.753	1765.2
967.127	1760.77
970.502	1766.86
973.877	1758.62
977.252	1748.95
980.627	1750.37
984.001	1751.18
987.376	1736.38
990.751	1741.55
994.126	1733.18
997.501	1722.41
1000.88	1724.7
1004.25	1705.93
1007.62	1695.11
1011	1688.19
1014.38	1671.66
1017.75	1673.76
1021.12	1655.45
1024.5	1635.97
1027.87	1617.64
1031.25	1626.24
1034.62	1593.5
1038	1575.16
1041.37	1569.72
1044.75	1556.54
1048.12	1532.47
1051.5	1514.8
1054.87	1497.32
1058.25	1485.62
1061.62	1474.33
1065	1456.82
1068.37	1436.24
1071.75	1422.23
1075.12	1397.59
1078.5	1383.65
1081.87	1369.79
1085.25	1357.78
1088.62	1346.21
1092	1334.21
1095.37	1326.94
1098.74	1305.74
1102.12	1296.35
1105.49	1286.14
1108.87	1292.22
1112.24	1262.8
1115.62	1249.13
1118.99	1246.79
1122.37	1244.87
1125.74	1236.32
1129.12	1239.83
1132.49	1233.55
1135.87	1227.25
1139.24	1234.2
1142.62	1226.48
1145.99	1227.72
1149.37	1227.88
1152.74	1219.92
1156.12	1217.05
1159.49	1219.69
1162.87	1229.86
1166.24	1220.21
1169.62	1226.51
1172.99	1220.81
1176.37	1221.6
1179.74	1224.07
1183.12	1217.23
1186.49	1216.64
1189.87	1225.84
1193.24	1229.52
1196.62	1219.37
1199.99	1227.38
1203.37	1223.58
1206.74	1222.51
1210.11	1225.1
1213.49	1222.33
1216.86	1225.88
1220.24	1222.88
1223.61	1233.78
1226.99	1239.03
1230.36	1225.39
1233.74	1225.16
1237.11	1226.56
1240.49	1234.21
1243.86	1230.44
1247.24	1240.72
1250.61	1233.58
1253.99	1235.28
1257.36	1245.89
1260.74	1247.12
1264.11	1243.22
1267.49	1249.38
1270.86	1253.88
1274.24	1261.51
1277.61	1262.87
1280.98	1268.06
1284.36	1272.79
