Measurement: Raman, 532 nm, unoriented, Raman Data Processed
Mineral: Glass-(Lu)
Rruff sample: R110087
Locality: Synthetic
Source: Elizabeth Cairns, University of Edinburgh
Description: Colorless glass fragment
Measured chemistry: CaO 18.91%, Lu_2_O_3_ 22.31%, Al_2_O_3_ 11.49%, SiO_2_ 47.29%, Ca_14_Lu_5_Al_9_Si_33_O_100_
Raman shift (cm-1)	intensity
251.519	523.997
254.412	523.44
257.305	524.488
260.197	527.428
263.09	525.144
265.983	526.543
268.875	528.337
271.768	525.918
274.661	530.094
277.553	533.534
280.446	531.585
283.339	528.914
286.232	531.895
289.124	526.501
292.017	530.766
294.91	534.941
297.802	536.147
300.695	536.242
303.588	535.671
306.481	537.537
309.373	534.276
312.266	536.297
315.159	537.587
318.051	537.292
320.944	536.51
323.837	532.532
326.729	536.843
329.622	533.938
332.515	535.263
335.408	536.699
338.3	532.612
341.193	533.183
344.086	530.818
346.978	528.592
349.871	531.731
352.764	529.678
355.656	527.112
358.549	524.405
361.442	520.443
364.334	521.689
367.227	516.68
370.12	516.603
373.012	514.271
375.905	513.865
378.798	506.817
381.691	501.776
384.583	502.962
387.476	500.136
390.369	496.781
393.261	495.634
396.154	488.172
399.047	485.381
401.94	484.022
404.832	487.829
407.725	480.511
410.618	475.89
413.51	478.183
416.403	473.508
419.296	470.059
422.188	466.978
425.081	464.895
427.974	463.099
430.866	461.971
433.759	459.56
436.652	456.092
439.545	452.125
442.437	449.411
445.33	449.234
448.223	449.526
451.115	443.694
454.008	443.582
456.901	440.762
459.793	443.052
462.686	440.267
465.579	437.351
468.472	436.366
471.364	432.136
474.257	431.411
477.15	430.182
480.042	430.092
482.935	428.478
485.828	425.55
488.721	422.484
491.613	423.401
494.506	420.346
497.399	418.151
500.291	419.48
503.184	415.76
506.077	413.13
508.969	410.796
511.862	410.475
514.755	409.247
517.648	402.363
520.54	398.726
523.433	400.161
526.326	396.478
529.218	393.825
532.111	391.136
535.004	389.126
537.896	384.474
540.789	380.837
543.682	382.23
546.575	377.796
549.467	379.47
552.36	374.792
555.253	370.963
558.145	370.57
561.038	370.666
563.931	367.978
566.823	370.973
569.716	370.581
572.609	367.269
575.502	366.152
578.394	363.979
581.287	363.616
584.18	359.864
587.072	360.406
589.965	358.498
592.858	358.784
595.75	353.778
598.643	352.121
601.536	349.241
604.428	346.804
607.321	347.047
610.214	346.675
613.107	347.75
615.999	344.413
618.892	343.406
621.785	345.754
624.677	347.413
627.57	348.15
630.463	350.739
633.356	350.18
636.248	352.36
639.141	351.7
642.034	353.739
644.926	355.89
647.819	356.959
650.712	357.294
653.604	361.012
656.497	360.79
659.39	361.394
662.283	360.547
665.175	362.446
668.068	361.211
670.961	360.419
673.853	360.204
676.746	358.077
679.639	358.769
682.531	356.941
685.424	353.984
688.317	354.456
691.21	353.296
694.102	348.376
696.995	347.925
699.888	343.259
702.78	341.664
705.673	340.57
708.566	339.493
711.458	336.13
714.351	334.019
717.244	329.481
720.136	326.009
723.029	326.412
725.922	325.162
728.815	325.199
731.707	320.369
734.6	320.45
737.493	316.554
740.385	312.786
743.278	308.979
746.171	308.335
749.063	307.004
751.956	306.238
754.849	305.556
757.742	300.019
760.634	299.761
763.527	297.518
766.42	293.188
769.312	293.555
772.205	289.595
775.098	287.738
777.99	286.795
780.883	285.078
783.776	279.498
786.669	281.726
789.561	274.128
792.454	274.82
795.347	272.716
798.239	268.466
801.132	266.599
804.025	264.272
806.918	261.879
809.81	259.135
812.703	259.077
815.596	255.557
818.488	253.993
821.381	254.841
824.274	250.43
827.166	249.553
830.059	251.345
832.952	253.172
835.845	253.349
838.737	252.997
841.63	256.033
844.523	257.429
847.415	258.852
850.308	262.669
853.201	265.777
856.093	268.682
858.986	275.103
861.879	276.516
864.771	279.661
867.664	282.695
870.557	286.135
873.45	290.458
876.342	298.234
879.235	298.705
882.128	302.23
885.02	309.242
887.913	314.717
890.806	314.386
893.698	320.817
896.591	321.482
899.484	324.631
902.377	328.719
905.269	334.088
908.162	336.582
911.055	341.52
913.947	343.293
916.84	348.067
919.733	348.53
922.625	354.048
925.518	356.464
928.411	360.647
931.304	360.476
934.196	363.186
937.089	366.382
939.982	371.979
942.875	373.605
945.767	373.053
948.66	377.655
951.553	380.285
954.445	384.856
957.338	385.129
960.231	386.748
963.123	390.271
966.016	393.774
968.909	394.941
971.802	397.504
974.694	399.479
977.587	400.274
980.48	403.475
983.372	404.844
986.265	407.303
989.158	408.051
992.05	414.938
994.943	415.237
997.836	412.479
1000.73	415.462
1003.62	416.851
1006.51	415.333
1009.41	415.916
1012.3	418.082
1015.19	416.043
1018.09	418.556
1020.98	417.457
1023.87	416.222
1026.76	414.835
1029.66	415.404
1032.55	411.445
1035.44	412.052
1038.33	406.021
1041.23	403.471
1044.12	401.871
1047.01	394.936
1049.9	392.733
1052.8	389.663
1055.69	382.421
1058.58	379.771
1061.47	371.51
1064.37	368.795
1067.26	362.4
1070.15	357.517
1073.05	350.138
1075.94	343.273
1078.83	337.526
1081.72	331.278
1084.62	326.768
1087.51	319.725
1090.4	312.806
1093.3	308.928
1096.19	303.663
1099.08	300.416
1101.97	295.609
1104.87	290.645
1107.76	283.838
1110.65	280.754
1113.54	278.466
1116.44	273.671
1119.33	267.567
1122.22	265.098
1125.12	262.993
1128.01	258.908
1130.9	256.355
1133.79	253.642
1136.68	252.746
1139.58	248.154
1142.47	246.938
1145.36	244.425
1148.26	243.634
1151.15	240.969
1154.04	239.746
1156.93	240.131
1159.83	238.255
1162.72	239.138
1165.61	239.335
1168.51	236.945
1171.4	238.651
1174.29	238.014
1177.18	238.388
1180.08	239.708
1182.97	239.391
1185.86	240.852
1188.75	239.842
1191.65	244.716
1194.54	242.338
1197.43	245.17
1200.33	247.956
1203.22	249.888
1206.11	255.716
1209	257.359
1211.9	257.407
1214.79	259.445
1217.68	263.241
1220.57	266.533
1223.47	270.091
1226.36	273.769
1229.25	278.25
1232.14	282.398
1235.04	284.702
1237.93	289.402
1240.82	294.651
1243.71	302.938
1246.61	306.192
1249.5	311.002
1252.39	320.308
1255.29	325.518
1258.18	333.269
1261.07	339.829
1263.96	346.719
1266.86	353.273
1269.75	365.08
1272.64	373.021
1275.54	384.019
1278.43	394.405
1281.32	403.618
1284.21	413.166
1287.11	423.887
1290	434.475
1292.89	447.745
1295.78	459.375
1298.68	472.921
1301.57	486.959
