Measurement: Raman, 785 nm, unoriented, Raman Data Processed
Mineral: Glaucodot
Rruff sample: R070644
Ideal chemistry: Co^3+^Fe^3+^(AsS)^3-^_2_
Locality: Hakansboda, Lindesberg, Västmanland, Sweden
Source: Michael Scott
Description: Pair of grey metallic crystals with chalcopyrite embedded in epoxy.
Measured chemistry: (Co_0.53_Fe_0.45_Ni_0.02_)_Σ=1_As_1.00_(S_0.90_As_0.10_)_Σ=1_ ; the included dark prisms are actinolite
Raman shift (cm-1)	intensity
132.59	0
135.483	2.79646
138.376	38.7591
141.268	57.6902
144.161	62.5049
147.054	56.807
149.946	37.4154
152.839	53.4835
155.732	72.9654
158.625	96.9675
161.517	111.392
164.41	87.7715
167.303	76.7445
170.195	55.647
173.088	66.0066
175.981	54.953
178.873	48.8121
181.766	40.7637
184.659	36.0091
187.552	36.625
190.444	41.682
193.337	25.5253
196.23	35.7502
199.122	28.377
202.015	21.6938
204.908	7.71219
207.8	10.558
210.693	18.1928
213.586	9.31136
216.478	6.30638
219.371	12.4357
222.264	25.6567
225.157	22.2507
228.049	7.6481
230.942	0.629837
233.835	3.16866
236.727	5.33167
239.62	2.77275
242.513	2.25098
245.405	6.18741
248.298	9.78925
251.191	12.9089
254.084	5.00441
256.976	0.140213
259.869	5.0378
262.762	4.04878
265.654	4.77229
268.547	15.8679
271.44	25.3969
274.332	18.6349
277.225	16.2314
280.118	24.6772
283.011	12.0574
285.903	18.0367
288.796	27.9012
291.689	29.361
294.581	13.2189
297.474	8.44914
300.367	16.2829
303.26	20.2651
306.152	0.528847
309.045	14.665
311.938	14.8135
314.83	28.4754
317.723	18.5923
320.616	33.6155
323.508	33.1783
326.401	23.6483
329.294	26.9088
332.187	23.4266
335.079	35.21
337.972	25.4409
340.865	32.056
343.757	24.1643
346.65	31.9899
349.543	22.4573
352.435	29.8409
355.328	20.4649
358.221	30.3857
361.113	33.0568
364.006	22.274
366.899	32.2077
369.792	26.4766
372.684	9.51805
375.577	32.4635
378.47	29.88
381.362	2.95682
384.255	9.25166
387.148	3.28092
390.041	17.9651
392.933	6.34399
395.826	0.964584
398.719	9.55616
401.611	18.1198
404.504	19.1862
407.397	2.45726
410.289	5.59104
413.182	1.84383
416.075	15.0331
418.967	14.0228
421.86	5.10049
424.753	12.8893
427.646	6.90337
430.538	8.86214
433.431	14.0427
436.324	21.3284
439.216	21.5283
442.109	18.0236
445.002	28.4599
447.894	3.97399
450.787	9.7116
453.68	19.8659
456.573	6.12711
459.465	8.23151
462.358	9.38666
465.251	6.17378
468.143	11.6428
471.036	14.9533
473.929	4.78093
476.822	2.00836
479.714	12.7811
482.607	9.52168
485.5	17.8243
488.392	1.66091
491.285	9.6385
494.178	1.95017
497.07	5.2728
499.963	19.0248
502.856	9.31915
505.748	11.759
508.641	14.7106
511.534	22.6386
514.427	7.57866
517.319	1.29149
520.212	5.59949
523.105	25.8408
525.997	1.90817
528.89	2.57855
531.783	13.3381
534.676	13.2602
537.568	12.5426
540.461	8.47363
543.354	9.16386
546.246	9.50567
549.139	15.6648
552.032	17.9244
554.924	0.072983
557.817	9.53801
560.71	16.5075
563.602	10.1426
566.495	14.2624
569.388	9.06104
572.281	11.1562
575.173	5.80147
578.066	15.722
580.959	11.5332
583.851	17.4891
586.744	15.2627
589.637	7.82951
592.529	8.21022
595.422	8.94268
598.315	4.52216
601.208	20.4835
604.1	13.022
606.993	8.28311
609.886	20.5272
612.778	18.6029
615.671	6.57906
618.564	19.4484
621.457	11.3746
624.349	26.9973
627.242	20.3166
630.135	23.8454
633.027	8.40092
635.92	9.35214
638.813	2.10677
641.705	0.405388
644.598	7.23491
647.491	12.7203
650.384	11.8195
653.276	2.80061
656.169	24.1781
659.062	10.9308
661.954	19.2496
664.847	8.35586
667.74	19.1136
670.632	12.4743
673.525	13.455
676.418	9.47839
679.311	1.85442
682.203	13.9155
685.096	12.9119
687.989	16.6761
690.881	7.03261
693.774	11.3676
696.667	23.8559
699.559	12.4251
702.452	8.55708
705.345	15.2876
708.237	16.5138
711.13	8.59145
714.023	7.76934
716.916	7.41634
719.808	9.1134
722.701	19.2823
725.594	3.64928
728.486	22.1715
731.379	6.86943
734.272	4.69386
737.164	2.53885
740.057	12.8306
742.95	10.8055
745.843	11.3969
748.735	11.6777
751.628	25.5059
754.521	14.7795
757.413	29.8042
760.306	4.10779
763.199	1.21599
766.091	23.0967
768.984	13.2429
771.877	28.0198
774.77	14.9562
777.662	15.4287
780.555	24.5555
783.448	5.67977
786.34	22.2179
789.233	27.1904
792.126	9.41006
795.019	13.8903
797.911	15.8657
800.804	1.12841
803.697	13.3944
806.589	21.2627
809.482	9.95921
812.375	19.1245
815.267	23.0748
818.16	9.91463
821.053	11.2893
823.946	7.47195
826.838	7.52592
829.731	2.85395
832.624	7.90812
835.516	3.2428
838.409	9.1163
841.302	7.67939
844.194	20.7736
847.087	16.0247
849.98	28.7234
852.872	13.4251
855.765	26.6807
858.658	8.78094
861.551	0.279167
864.443	0.457268
867.336	5.7873
870.229	16.1212
873.121	11.778
876.014	18.7638
878.907	14.3307
881.799	13.7841
884.692	10.0449
887.585	24.3234
890.478	28.8948
893.37	18.6991
896.263	7.90494
899.156	10.8305
902.048	11.2627
904.941	12.6261
907.834	0.450516
910.726	8.32011
913.619	12.51
916.512	1.88736
919.405	2.28004
922.297	5.61586
925.19	7.70937
928.083	23.0295
930.975	2.22063
933.868	17.4546
936.761	7.34737
939.654	20.5855
942.546	15.2329
945.439	16.3864
948.332	14.5958
951.224	28.9371
954.117	26.9398
957.01	4.58878
959.902	19.0525
962.795	10.7904
965.688	15.7632
968.581	4.43956
971.473	3.88413
974.366	9.06001
977.259	22.0949
980.151	11.5527
983.044	22.3153
985.937	6.68666
988.829	12.5462
991.722	1.16651
994.615	6.43752
997.508	22.1277
1000.4	34.0142
1003.29	27.1141
1006.19	24.9603
1009.08	24.306
1011.97	10.426
1014.86	16.0172
1017.76	14.4164
1020.65	4.8598
1023.54	2.0429
1026.43	9.96609
1029.33	18.3013
1032.22	5.33585
1035.11	7.18321
1038.01	25.836
1040.9	1.10047
1043.79	28.0918
1046.68	21.0971
1049.58	31.4216
1052.47	13.4108
1055.36	12.2582
1058.25	14.11
1061.15	8.57512
1064.04	12.6595
1066.93	29.9529
1069.83	16.9747
1072.72	3.83452
1075.61	16.2938
1078.5	14.8649
1081.4	5.75306
1084.29	7.16277
1087.18	29.9608
1090.07	17.6175
1092.97	8.46833
1095.86	16.977
1098.75	3.78165
1101.64	9.35247
1104.54	5.59428
1107.43	8.62609
1110.32	12.5683
1113.21	11.9436
1116.11	11.6902
1119	27.988
1121.89	19.8852
1124.79	24.8611
1127.68	35.4237
1130.57	4.76938
1133.46	17.9954
1136.36	19.4747
1139.25	2.32068
1142.14	16.2757
1145.04	11.3894
1147.93	0.693726
1150.82	12.6085
1153.71	15.7758
1156.61	10.3803
1159.5	12.0487
1162.39	5.66001
1165.28	7.43037
1168.18	17.5849
1171.07	31.8771
1173.96	3.34284
1176.86	26.3078
1179.75	16.1504
1182.64	21.5225
1185.53	15.9188
1188.43	22.2978
1191.32	3.18832
1194.21	23.6185
1197.1	18.886
1200	24.6534
1202.89	23.1551
1205.78	22.6881
1208.67	19.1973
1211.57	22.8317
1214.46	16.7257
1217.35	5.82627
1220.24	40.9844
1223.14	19.2144
1226.03	15.7092
