Measurement: Raman, 532 nm, unoriented, Raman Data Processed
Mineral: Glaucodot
Rruff sample: R070644
Ideal chemistry: Co^3+^Fe^3+^(AsS)^3-^_2_
Locality: Hakansboda, Lindesberg, Västmanland, Sweden
Source: Michael Scott
Description: Pair of grey metallic crystals with chalcopyrite embedded in epoxy.
Measured chemistry: (Co_0.53_Fe_0.45_Ni_0.02_)_Σ=1_As_1.00_(S_0.90_As_0.10_)_Σ=1_ ; the included dark prisms are actinolite
Raman shift (cm-1)	intensity
146.287	0
149.662	6.60666
153.037	31.322
156.411	13.7632
159.786	30.6606
163.161	49.6973
166.536	5.91196
169.911	8.40521
173.286	10.9591
176.66	17.2836
180.035	35.7649
183.41	11.4298
186.785	48.3328
190.16	22.9611
193.535	31.1206
196.909	38.4012
200.284	29.1328
203.659	23.6737
207.034	17.5067
210.409	2.35156
213.783	12.1413
217.158	13.6737
220.533	30.9211
223.908	6.93707
227.283	28.7541
230.657	2.49591
234.032	11.3418
237.407	7.14429
240.782	12.5672
244.157	31.5312
247.532	31.8313
250.906	13.8821
254.281	20.1006
257.656	4.24191
261.031	17.9551
264.406	3.77687
267.781	15.0536
271.155	19.0832
274.53	40.4544
277.905	31.4277
281.28	43.892
284.655	58.263
288.029	61.059
291.404	55.5549
294.779	53.4949
298.154	34.6715
301.529	40.8426
304.904	33.0438
308.278	24.2544
311.653	10.6572
315.028	29.6959
318.403	46.6685
321.778	50.1383
325.152	71.6529
328.527	72.2607
331.902	66.8397
335.277	62.0546
338.652	58.783
342.026	59.6419
345.401	50.2267
348.776	41.6882
352.151	29.7855
355.526	13.1485
358.901	21.9873
362.275	19.7527
365.65	28.3556
369.025	14.7224
372.4	28.8827
375.775	31.4422
379.149	14.525
382.524	17.1685
385.899	1.84775
389.274	8.50104
392.649	17.4067
396.024	9.76314
399.398	0.746262
402.773	14.5174
406.148	2.48247
409.523	14.924
412.898	19.5867
416.272	13.5101
419.647	14.0401
423.022	0.953903
426.397	17.9779
429.772	24.4261
433.147	5.57104
436.521	2.68692
439.896	3.10428
443.271	2.35529
446.646	2.09393
450.021	22.5662
453.396	12.6663
456.77	38.6688
460.145	22.8371
463.52	27.6428
466.895	15.2673
470.27	29.1965
473.644	22.6437
477.019	27.7088
480.394	0.350349
483.769	15.5698
487.144	9.00881
490.519	31.2319
493.893	22.8303
497.268	27.5992
500.643	0.004868
504.018	10.8384
507.393	26.8887
510.767	11.415
514.142	11.0984
517.517	21.4069
520.892	1.33154
524.267	17.4691
527.641	1.73954
531.016	6.81731
534.391	13.7616
537.766	7.96421
541.141	0.018448
544.516	23.6343
547.89	11.9459
551.265	25.8783
554.64	6.00739
558.015	29.0108
561.39	38.8125
564.764	11.2555
568.139	23.9175
571.514	8.21129
574.889	20.4203
578.264	20.8096
581.639	7.19247
585.013	13.5467
588.388	15.0131
591.763	23.6438
595.138	5.38753
598.513	22.0678
601.888	29.2028
605.262	23.524
608.637	7.33179
612.012	2.4832
615.387	5.30183
618.762	14.3551
622.136	16.2047
625.511	15.9248
628.886	16.7152
632.261	11.7027
635.636	24.7185
639.01	19.6064
642.385	20.2227
645.76	22.401
649.135	16.1355
652.51	9.8341
655.885	18.4758
659.259	13.2305
662.634	22.0172
666.009	27.5301
669.384	38.7102
672.759	24.8908
676.134	10.6872
679.508	28.633
682.883	26.8191
686.258	6.26623
689.633	33.4382
693.008	5.16638
696.382	2.94131
699.757	11.5873
703.132	21.6082
706.507	0.653053
709.882	39.6023
713.256	22.6427
716.631	28.1314
720.006	17.1646
723.381	36.612
726.756	13.1292
730.131	14.9731
733.505	12.6116
736.88	6.58062
740.255	11.6018
743.63	15.5268
747.005	17.6699
750.38	25.7542
753.754	7.01482
757.129	6.47472
760.504	29.4125
763.879	15.2521
767.254	5.95724
770.628	17.6725
774.003	5.03461
777.378	24.1132
780.753	23.8509
784.128	10.7962
787.503	15.6047
790.877	15.4841
794.252	5.42728
797.627	25.7928
801.002	26.789
804.377	11.8028
807.751	29.8283
811.126	18.0519
814.501	30.5926
817.876	4.31267
821.251	0.331779
824.625	8.13171
828	26.5908
831.375	35.1088
834.75	10.2916
838.125	41.1288
841.5	16.3737
844.874	12.4492
848.249	33.3705
851.624	33.0399
854.999	2.61288
858.374	3.34815
861.749	7.7615
865.123	25.4186
868.498	21.5062
871.873	29.4886
875.248	3.45567
878.623	15.6694
881.997	11.8656
885.372	12.6244
888.747	10.0822
892.122	7.07044
895.497	13.9488
898.871	18.1184
902.246	23.9223
905.621	5.38116
908.996	14.8074
912.371	14.2195
915.746	26.3089
919.12	18.0384
922.495	21.6498
925.87	10.7263
929.245	14.9251
932.62	20.2117
935.995	17.951
939.369	8.64625
942.744	4.01265
946.119	13.4707
949.494	17.6836
952.869	27.6374
956.243	1.95712
959.618	32.1424
962.993	24.8861
966.368	17.4439
969.743	7.70332
973.117	4.78262
976.492	8.97457
979.867	3.64808
983.242	2.29998
986.617	1.1562
989.992	9.52813
993.366	14.7217
996.741	31.2369
1000.12	22.8322
1003.49	23.0513
1006.87	19.8424
1010.24	26.047
1013.62	38.9023
1016.99	33.965
1020.37	5.94871
1023.74	12.0702
1027.12	23.0441
1030.49	16.4743
1033.86	39.0222
1037.24	12.5772
1040.61	32.0951
1043.99	17.1385
1047.36	29.0391
1050.74	0.286057
1054.11	36.0173
1057.49	7.87045
1060.86	8.6689
1064.24	17.8275
1067.61	12.4038
1070.99	30.6864
1074.36	3.91812
1077.74	24.2967
1081.11	4.23025
1084.49	11.1801
1087.86	7.38766
1091.24	7.8291
1094.61	7.55177
1097.99	10.3275
1101.36	9.64717
1104.73	3.49712
1108.11	26.3083
1111.48	21.7746
1114.86	32.4327
1118.23	15.6745
1121.61	15.1017
1124.98	18.6174
1128.36	25.7744
1131.73	8.91304
1135.11	18.0765
1138.48	4.07822
1141.86	4.09611
1145.23	22.1162
1148.61	12.2662
1151.98	8.10429
1155.36	11.7833
1158.73	13.7294
1162.11	30.4259
1165.48	9.86364
1168.86	13.6897
1172.23	4.3197
1175.61	15.413
1178.98	1.40084
1182.36	22.5375
1185.73	22.2208
1189.11	6.18718
1192.48	20.6962
1195.86	41.7185
1199.23	26.888
1202.61	30.0737
1205.98	28.7423
1209.36	15.9066
1212.73	14.8494
1216.1	1.75397
1219.48	19.3673
1222.85	14.9051
1226.23	25.7559
1229.6	26.544
1232.98	29.3362
1236.35	42.9829
1239.73	49.0811
1243.1	23.7179
1246.48	31.1149
1249.85	19.0371
1253.23	27.7807
1256.6	25.6609
1259.98	26.7338
1263.35	28.6399
1266.73	25.6852
1270.1	27.0687
1273.48	17.0971
1276.85	40.6661
1280.23	30.5699
1283.6	25.8899
1286.98	18.4321
1290.35	29.4836
1293.72	33.3898
1297.1	32.7235
1300.47	27.7159
1303.85	41.9682
1307.22	12.5597
1310.6	0
