Measurement: Raman, 785 nm, unoriented, Raman Data Processed
Mineral: Glaucodot
Rruff sample: R070294
Ideal chemistry: Co^3+^Fe^3+^(AsS)^3-^_2_
Locality: Hakansboda, Lindesberg, Västmanland, Sweden
Source: Michael Scott
Description: Grey metallic associated with chalcopyrite. Crystal structure solved using this sample, reported in Yang and Downs (2008).
Measured chemistry: (Co_0.52_Fe_0.47_Ni_0.01_)_Σ=1_As_1.00_S_1.00_
Raman shift (cm-1)	intensity
148.982	0
151.875	69.1824
154.768	153.711
157.66	242.418
160.553	218.6
163.446	159.772
166.338	86.7631
169.231	103.305
172.124	130.053
175.017	147.552
177.909	96.57
180.802	60.8887
183.695	62.0522
186.587	82.3846
189.48	96.2697
192.373	59.52
195.265	77.5809
198.158	77.9787
201.051	50.6507
203.944	21.213
206.836	44.2347
209.729	27.1233
212.622	5.77124
215.514	9.31552
218.407	0.918579
221.3	2.0192
224.192	0.576691
227.085	0.494751
229.978	1.38898
232.87	9.53036
235.763	1.63098
238.656	8.56451
241.549	12.305
244.441	6.14206
247.334	22.0017
250.227	18.9131
253.119	15.8079
256.012	12.7972
258.905	22.9817
261.798	15.8297
264.69	23.6861
267.583	29.0511
270.476	38.441
273.368	25.4297
276.261	39.5302
279.154	31.1469
282.046	31.0498
284.939	34.4894
287.832	34.6722
290.724	21.4472
293.617	2.34122
296.51	27.8698
299.403	35.3902
302.295	27.441
305.188	23.8094
308.081	32.529
310.973	18.3885
313.866	34.5711
316.759	32.3249
319.651	21.5196
322.544	36.1626
325.437	29.4323
328.33	23.6242
331.222	21.4421
334.115	26.2767
337.008	16.4688
339.9	17.1856
342.793	38.5647
345.686	14.811
348.579	7.30267
351.471	11.8411
354.364	16.3292
357.257	20.5802
360.149	15.3814
363.042	9.34892
365.935	13.8805
368.827	11.0978
371.72	4.42906
374.613	23.1378
377.505	24.5131
380.398	13.8027
383.291	0.836807
386.184	3.45493
389.076	3.257
391.969	2.61191
394.862	18.0777
397.754	0.360535
400.647	26.6041
403.54	14.3439
406.433	15.9202
409.325	3.37932
412.218	17.6458
415.111	7.30801
418.003	11.6529
420.896	19.4864
423.789	13.5816
426.681	3.63284
429.574	5.09804
432.467	2.42818
435.36	9.61432
438.252	20.8004
441.145	20.8924
444.038	15.8324
446.93	4.23802
449.823	18.7923
452.716	12.7438
455.608	24.6181
458.501	10.7803
461.394	13.8836
464.286	25.9183
467.179	15.2594
470.072	0.021561
472.965	19.4118
475.857	8.60586
478.75	6.19955
481.643	13.2141
484.535	19.5983
487.428	12.3885
490.321	2.65137
493.214	15.8382
496.106	12.9058
498.999	32.7255
501.892	19.1088
504.784	12.3964
507.677	19.1253
510.57	2.38084
513.462	5.29126
516.355	12.7854
519.248	8.6855
522.14	9.8134
525.033	25.884
527.926	8.09026
530.819	20.7146
533.711	18.5795
536.604	24.0304
539.497	3.3829
542.389	13.3039
545.282	18.5929
548.175	11.7874
551.067	11.9992
553.96	0.723206
556.853	2.31139
559.745	1.15628
562.638	23.9949
565.531	15.7208
568.424	15.565
571.316	18.4249
574.209	11.743
577.102	7.02364
579.994	12.655
582.887	17.3258
585.78	6.20535
588.673	12.8279
591.565	13.896
594.458	25.4981
597.351	3.91211
600.243	12.0518
603.136	0.860214
606.029	9.90643
608.921	20.8677
611.814	20.7296
614.707	27.2096
617.6	34.6318
620.492	19.0039
623.385	37.7736
626.278	5.31679
629.17	8.06477
632.063	10.686
634.956	23.4312
637.848	9.85326
640.741	7.90556
643.634	8.67148
646.527	0.947617
649.419	10.3472
652.312	17.1723
655.205	23.3884
658.097	10.7129
660.99	21.7037
663.883	6.68149
666.775	35.2487
669.668	15.3874
672.561	11.1304
675.454	10.7787
678.346	6.26085
681.239	14.914
684.132	6.69104
687.024	22.9684
689.917	18.4266
692.81	24.5465
695.702	14.5723
698.595	12.9468
701.488	18.3541
704.381	25.2763
707.273	10.687
710.166	11.3977
713.059	12.4389
715.951	8.29195
718.844	22.9032
721.737	22.5449
724.63	15.0714
727.522	22.9811
730.415	12.1755
733.308	17.4136
736.2	6.37798
739.093	22.4877
741.986	9.89909
744.878	18.9709
747.771	22.0207
750.664	16.5684
753.557	22.3966
756.449	6.13629
759.342	13.202
762.235	8.30301
765.127	30.574
768.02	3.24275
770.913	31.088
773.805	13.6352
776.698	18.6901
779.591	17.777
782.484	32.5195
785.376	18.8388
788.269	0.971497
791.162	21.3836
794.054	36.2385
796.947	8.04681
799.84	1.74712
802.732	2.44124
805.625	14.7528
808.518	14.0766
811.41	13.1846
814.303	11.0027
817.196	15.7436
820.089	6.28297
822.981	5.62273
825.874	4.61223
828.767	2.12721
831.659	1.54446
834.552	22.7241
837.445	8.81679
840.337	13.1878
843.23	5.28763
846.123	13.1573
849.016	9.04869
851.908	11.0931
854.801	0.497635
857.694	1.51155
860.586	9.0976
863.479	4.4068
866.372	11.9069
869.264	13.0158
872.157	17.2284
875.05	2.59056
877.943	14.4531
880.835	23.3206
883.728	13.9128
886.621	24.4571
889.513	21.126
892.406	18.5227
895.299	14.4407
898.192	11.6017
901.084	12.029
903.977	13.6305
906.87	16.96
909.762	7.17149
912.655	20.4394
915.548	3.87268
918.44	9.18932
921.333	10.3803
924.226	11.4046
927.119	27.1991
930.011	4.44981
932.904	25.9254
935.797	22.0687
938.689	13.3548
941.582	9.36952
944.475	13.3176
947.367	14.4517
950.26	26.1031
953.153	9.54919
956.045	19.1289
958.938	17.8676
961.831	17.0524
964.724	19.7615
967.616	3.66624
970.509	31.3924
973.402	0.738724
976.294	24.8924
979.187	1.22011
982.08	9.82292
984.972	25.6977
987.865	12.7181
990.758	19.5041
993.651	1.83046
996.543	3.2881
999.436	18.7781
1002.33	12.5744
1005.22	13.6261
1008.11	14.2741
1011.01	19.226
1013.9	27.6519
1016.79	6.00005
1019.68	10.2747
1022.58	15.6451
1025.47	18.6388
1028.36	8.4399
1031.26	17.41
1034.15	4.40292
1037.04	26.1802
1039.93	14.5428
1042.83	20.6546
1045.72	5.87791
1048.61	7.3548
1051.51	25.7881
1054.4	4.83879
1057.29	12.5826
1060.18	21.1004
1063.08	20.7583
1065.97	13.8055
1068.86	10.1015
1071.75	9.32054
1074.65	1.65277
1077.54	14.6774
1080.43	17.2766
1083.32	15.7479
1086.22	15.9253
1089.11	30.2635
1092	19.5513
1094.89	18.6672
1097.79	1.89847
1100.68	11.4438
1103.57	13.7268
1106.47	26.5645
1109.36	21.4008
1112.25	14.1008
1115.14	23.4641
1118.04	19.9166
1120.93	14.0459
1123.82	27.941
1126.71	36.6222
1129.61	32.1339
1132.5	17.7638
1135.39	27.8314
1138.29	21.4611
1141.18	21.2228
1144.07	7.79045
1146.96	5.01593
1149.86	15.2395
1152.75	27.4274
1155.64	19.2804
1158.53	18.0242
1161.43	32.1879
1164.32	19.9204
1167.21	39.2059
1170.11	37.3631
1173	25.6279
1175.89	20.8272
1178.78	0.182693
1181.68	14.9022
1184.57	14.3407
1187.46	18.0254
1190.35	35.1074
1193.25	30.0883
1196.14	32.1594
1199.03	25.3595
1201.92	4.64578
1204.82	37.3287
1207.71	17.2206
1210.6	22.4764
1213.5	7.05475
1216.39	3.39162
1219.28	36.4135
1222.17	30.655
1225.07	20.509
1227.96	0.34848
1230.85	15.2732
