Measurement: Raman, 532 nm, unoriented, Raman Data Processed
Mineral: Glaucodot
Rruff sample: R070294
Ideal chemistry: Co^3+^Fe^3+^(AsS)^3-^_2_
Locality: Hakansboda, Lindesberg, Västmanland, Sweden
Source: Michael Scott
Description: Grey metallic associated with chalcopyrite. Crystal structure solved using this sample, reported in Yang and Downs (2008).
Measured chemistry: (Co_0.52_Fe_0.47_Ni_0.01_)_Σ=1_As_1.00_S_1.00_
Raman shift (cm-1)	intensity
144.841	0
147.733	19.8255
150.626	16.9776
153.519	26.0565
156.411	42.2623
159.304	16.0291
162.197	36.4244
165.09	32.7863
167.982	27.3632
170.875	58.8239
173.768	35.8658
176.66	50.0474
179.553	32.0798
182.446	26.7552
185.339	46.6253
188.231	40.4031
191.124	56.217
194.017	37.615
196.909	54.4004
199.802	30.8757
202.695	27.9135
205.587	19.5747
208.48	5.47015
211.373	6.68625
214.266	11.8047
217.158	2.74661
220.051	10.0777
222.944	9.24823
225.836	2.79327
228.729	13.3067
231.622	15.3274
234.514	14.7203
237.407	12.4799
240.3	15.757
243.192	9.62424
246.085	6.24383
248.978	10.6975
251.871	29.9181
254.763	34.1876
257.656	15.1676
260.549	36.1907
263.441	22.3162
266.334	36.5257
269.227	44.7965
272.12	49.7583
275.012	58.2993
277.905	59.4211
280.798	35.3058
283.69	52.2737
286.583	42.1849
289.476	46.1409
292.368	52.2726
295.261	61.227
298.154	50.9134
301.046	73.0761
303.939	46.8173
306.832	46.7486
309.725	46.6085
312.617	40.2909
315.51	53.0546
318.403	57.2097
321.295	45.0309
324.188	60.6904
327.081	51.5984
329.974	65.5333
332.866	63.1975
335.759	49.1691
338.652	57.7414
341.544	51.8314
344.437	56.0028
347.33	46.23
350.223	28.8327
353.115	49.4619
356.008	26.2168
358.901	19.3858
361.793	26.7645
364.686	33.7765
367.579	17.6169
370.471	0.7677
373.364	15.2357
376.257	24.3699
379.149	5.46973
382.042	20.6483
384.935	0.865051
387.828	4.1145
390.72	14.5254
393.613	29.9215
396.506	10.2875
399.398	15.808
402.291	12.6415
405.184	30.0771
408.077	11.561
410.969	39.2157
413.862	12.2407
416.755	22.5323
419.647	17.4369
422.54	10.2927
425.433	23.4322
428.325	29.5908
431.218	4.5404
434.111	8.60754
437.003	8.3895
439.896	9.53592
442.789	14.3524
445.682	28.3925
448.574	32.7659
451.467	26.416
454.36	36.6594
457.252	31.1682
460.145	15.4691
463.038	31.7393
465.93	5.62265
468.823	26.3988
471.716	24.7138
474.609	24.1196
477.501	19.742
480.394	14.9185
483.287	24.4765
486.179	27.4267
489.072	12.4315
491.965	12.2021
494.858	13.7801
497.75	24.1681
500.643	22.9926
503.536	12.4577
506.428	23.0266
509.321	3.45932
512.214	15.9429
515.106	13.8473
517.999	15.2127
520.892	0.903412
523.784	13.1533
526.677	2.02927
529.57	8.30771
532.463	20.5091
535.355	21.8936
538.248	43.4866
541.141	0.284576
544.033	12.2403
546.926	1.20673
549.819	10.5966
552.712	27.9231
555.604	10.7927
558.497	11.016
561.39	30.8815
564.282	20.1848
567.175	24.0421
570.068	18.7956
572.96	18.5325
575.853	26.2273
578.746	11.5922
581.639	4.00357
584.531	20.3401
587.424	12.9023
590.317	15.5031
593.209	17.5393
596.102	2.42893
598.995	14.9275
601.888	20.1859
604.78	20.5309
607.673	4.62143
610.566	18.8382
613.458	19.9936
616.351	20.6983
619.244	6.26569
622.136	13.0124
625.029	2.19022
627.922	5.0079
630.814	18.2423
633.707	8.72961
636.6	14.7331
639.493	5.20453
642.385	8.19583
645.278	15.4315
648.171	0.186096
651.063	8.11179
653.956	3.65222
656.849	4.48569
659.741	26.3155
662.634	2.30698
665.527	25.8975
668.42	27.581
671.312	28.8345
674.205	14.887
677.098	22.1788
679.99	7.40561
682.883	14.1842
685.776	8.0918
688.668	1.67041
691.561	12.5682
694.454	13.9911
697.347	17.654
700.239	22.2485
703.132	14.1015
706.025	8.82767
708.917	16.1679
711.81	13.7144
714.703	32.1204
717.596	23.2769
720.488	20.7213
723.381	14.9948
726.274	3.58756
729.166	11.0665
732.059	5.55441
734.952	4.04468
737.844	25.2878
740.737	0.690674
743.63	18.3035
746.523	9.17584
749.415	26.9389
752.308	27.5915
755.201	22.0683
758.093	22.6721
760.986	23.9379
763.879	16.5828
766.771	2.09671
769.664	9.2941
772.557	32.6023
775.45	21.0656
778.342	9.87225
781.235	10.1964
784.128	25.0216
787.02	6.89783
789.913	40.8866
792.806	9.28839
795.698	23.8723
798.591	14.4148
801.484	28.7739
804.377	19.6822
807.269	12.6241
810.162	7.55829
813.055	1.35315
815.947	29.5522
818.84	16.0349
821.733	10.8249
824.625	27.6551
827.518	37.2207
830.411	24.6201
833.304	16.791
836.196	20.0006
839.089	23.738
841.982	10.6594
844.874	22.5587
847.767	41.5004
850.66	12.4164
853.553	21.2857
856.445	20.2544
859.338	2.23938
862.231	10.8822
865.123	12.2134
868.016	33.4614
870.909	15.0692
873.801	16.4742
876.694	28.4557
879.587	34.5892
882.48	18.7437
885.372	4.83188
888.265	11.5778
891.158	25.8612
894.05	35.6723
896.943	18.2609
899.836	12.2072
902.729	19.5748
905.621	9.18066
908.514	21.5073
911.407	8.12567
914.299	15.3468
917.192	18.7111
920.085	19.0277
922.977	9.24075
925.87	17.8603
928.763	5.0907
931.655	21.4606
934.548	0.836914
937.441	20.5843
940.334	34.1732
943.226	28.83
946.119	36.55
949.012	19.6549
951.904	31.8709
954.797	20.0859
957.69	3.57886
960.582	18.5827
963.475	5.52997
966.368	20.1757
969.261	7.3595
972.153	3.70828
975.046	26.0013
977.939	8.685
980.831	15.4898
983.724	23.5112
986.617	13.9207
989.51	25.1832
992.402	5.72531
995.295	25.707
998.188	6.96008
1001.08	3.68954
1003.97	14.2817
1006.87	4.17606
1009.76	14.2886
1012.65	38.0557
1015.54	4.02402
1018.44	9.03262
1021.33	5.93607
1024.22	14.9877
1027.12	47.5089
1030.01	24.7702
1032.9	10.2396
1035.79	4.36978
1038.68	19.9953
1041.58	11.4713
1044.47	14.7392
1047.36	25.604
1050.26	8.45862
1053.15	16.675
1056.04	16.6421
1058.93	7.71887
1061.83	36.2608
1064.72	17.3505
1067.61	19.0801
1070.51	23.7629
1073.4	12.2277
1076.29	15.2059
1079.18	14.1092
1082.08	13.9499
1084.97	4.86609
1087.86	15.26
1090.75	15.8591
1093.65	35.7464
1096.54	40.2031
1099.43	5.02777
1102.33	30.7102
1105.22	12.0283
1108.11	31.0503
1111	4.36444
1113.9	21.3779
1116.79	29.7945
1119.68	0.079376
1122.57	20.6762
1125.47	15.6885
1128.36	18.0111
1131.25	3.45706
1134.14	21.7405
1137.04	28.0533
1139.93	11.285
1142.82	29.0559
1145.71	15.6333
1148.61	0.552429
1151.5	24.7335
1154.39	25.7678
1157.29	35.0883
1160.18	43.7614
1163.07	28.9343
1165.96	12.7042
1168.86	12.9756
1171.75	3.79077
1174.64	31.4745
1177.54	28.4889
1180.43	9.72986
1183.32	19.0497
1186.21	27.2212
1189.11	10.0109
1192	34.9374
1194.89	24.5124
1197.78	33.2993
1200.68	20.2739
1203.57	18.8966
1206.46	24.6729
1209.36	10.9963
1212.25	8.09131
1215.14	11.7383
1218.03	33.8258
1220.93	16.9887
1223.82	35.4678
1226.71	8.22049
1229.6	27.1787
1232.5	9.05093
1235.39	12.3925
1238.28	39.5077
1241.17	27.448
1244.07	22.1857
1246.96	26.0188
1249.85	11.2503
1252.74	39.9949
1255.64	10.0254
1258.53	53.7716
1261.42	25.7609
1264.32	46.9879
1267.21	15.9468
1270.1	38.0278
1272.99	22.1467
1275.89	29.0917
1278.78	12.6723
1281.67	1.66388
1284.57	17.2966
1287.46	20.1958
1290.35	42.5825
1293.24	0.164886
1296.14	2.43951
