Measurement: Raman, 780 nm, unoriented, Raman Data Processed
Mineral: Goldmanite
Rruff sample: R090044
Ideal chemistry: Ca_3_V^3+^_2_(SiO_4_)_3_
Locality: Synthetic
Source: Kevin Righter,
Description: Synthesized under pressure P = 10 kbars, at temperature T = 1300 C for 8 hours.
Measured chemistry: Ca_3.00_V_2.00_(SiO_4_)_3.00_
Raman shift (cm-1)	intensity
119.506	0
122.881	7.38524
126.256	2.23035
129.631	4.58298
133.005	1.29298
136.38	3.07863
139.755	6.0282
143.13	1.41699
146.505	3.26084
149.879	3.85998
153.254	2.74264
156.629	3.22551
160.004	1.06203
163.379	5.98299
166.753	0.645275
170.128	3.83487
173.503	3.20053
176.878	1.05447
180.253	0.724861
183.627	4.28151
187.002	0.829166
190.377	3.11825
193.752	0.289646
197.127	4.59741
200.502	1.0182
203.876	3.38497
207.251	3.9122
210.626	1.29355
214.001	2.76528
217.376	4.37339
220.75	6.6198
224.125	2.08371
227.5	6.4385
230.875	2.84407
234.25	6.03336
237.625	7.91941
240.999	11.5126
244.374	10.0775
247.749	9.82276
251.124	9.91464
254.499	3.16943
257.873	2.32404
261.248	0.062214
264.623	2.48997
267.998	2.08624
271.373	5.81259
274.748	2.26436
278.122	1.29802
281.497	1.93481
284.872	3.65788
288.247	3.79478
291.622	2.08139
294.996	0.413261
298.371	6.14292
301.746	1.77348
305.121	1.7551
308.496	1.28038
311.87	2.28476
315.245	1.43074
318.62	1.38546
321.995	4.12
325.37	5.19735
328.745	3.03481
332.119	4.31149
335.494	5.05976
338.869	1.18708
342.244	3.19945
345.619	6.20037
348.993	2.59203
352.368	2.07695
355.743	6.11713
359.118	4.3321
362.493	3.78588
365.868	0.533344
369.242	5.62693
372.617	4.41045
375.992	4.00407
379.367	2.23883
382.741	5.93572
386.116	4.96929
389.491	0.805622
392.866	4.26047
396.241	0.254745
399.616	2.75126
402.99	4.36562
406.365	2.9442
409.74	1.42079
413.115	1.83165
416.49	8.42055
419.865	1.35158
423.239	0.239407
426.614	1.20821
429.989	4.31078
433.364	2.87103
436.739	1.02237
440.113	1.78231
443.488	6.22889
446.863	7.02492
450.238	0.105736
453.613	3.11818
456.988	6.31603
460.362	4.02146
463.737	3.06484
467.112	4.03854
470.487	5.49097
473.861	3.36763
477.236	3.28684
480.611	0.810009
483.986	2.07703
487.361	2.9925
490.736	5.07822
494.11	7.12787
497.485	1.62983
500.86	3.9507
504.235	0.266655
507.61	2.67914
510.985	3.52242
514.359	3.86951
517.734	3.63833
521.109	2.50679
524.484	1.19469
527.859	2.70378
531.233	3.92684
534.608	2.27785
537.983	3.72731
541.358	5.87688
544.733	0.365696
548.107	0.117992
551.482	2.64701
554.857	0.52663
558.232	1.49709
561.607	0.420773
564.981	2.80507
568.356	2.85747
571.731	4.35185
575.106	1.94402
578.481	1.37104
581.856	1.88943
585.23	2.04378
588.605	3.4774
591.98	0.518764
595.355	3.01725
598.73	6.40666
602.105	5.35586
605.479	0.621838
608.854	3.07953
612.229	2.1819
615.604	3.88457
618.979	1.72154
622.353	3.013
625.728	4.53964
629.103	0.655117
632.478	5.44566
635.853	1.33134
639.227	6.00621
642.602	5.04162
645.977	4.29878
649.352	0.709183
652.727	4.32861
656.101	0.133213
659.476	6.13989
662.851	5.39182
666.226	5.76917
669.601	5.6992
672.976	2.08718
676.35	2.50352
679.725	3.14178
683.1	1.70902
686.475	4.70267
689.85	5.04767
693.225	0.597874
696.599	2.94113
699.974	4.38466
703.349	0.548252
706.724	2.86566
710.098	1.4329
713.473	1.84407
716.848	3.28124
720.223	2.32701
723.598	1.96517
726.973	0.126949
730.347	1.94401
733.722	1.69924
737.097	0.999992
740.472	4.69709
743.847	2.90614
747.221	2.32539
750.596	0.066189
753.971	3.14426
757.346	2.03983
760.721	2.5821
764.096	0.365799
767.47	2.09649
770.845	1.52764
774.22	3.64623
777.595	2.82201
780.97	2.2227
784.345	4.04401
787.719	2.78811
791.094	1.64684
794.469	1.78699
797.844	5.43018
801.218	3.4069
804.593	3.83218
807.968	5.86341
811.343	3.95398
814.718	4.21682
818.093	5.50643
821.467	1.59786
824.842	2.42994
828.217	3.39613
831.592	3.33256
834.967	4.53864
838.341	3.66751
841.716	3.50675
845.091	3.82691
848.466	6.86658
851.841	4.8556
855.216	6.13076
858.59	5.68021
861.965	2.07864
865.34	4.26613
868.715	5.77967
872.09	6.64242
875.464	6.11435
878.839	3.32505
882.214	3.9521
885.589	0.304798
888.964	0.247227
892.338	2.71013
895.713	4.9678
899.088	3.37008
902.463	1.81958
905.838	3.17751
909.213	0.344894
912.587	4.04893
915.962	4.42081
919.337	0.376598
922.712	5.19212
926.087	2.03882
929.462	2.53069
932.836	3.22319
936.211	3.41034
939.586	0.293205
942.961	1.90219
946.336	1.90866
949.71	0.049191
953.085	1.4493
956.46	2.47342
959.835	3.92961
963.21	4.38648
966.584	1.78354
969.959	3.35588
973.334	5.86947
976.709	1.22224
980.084	1.42625
983.458	0.981407
986.833	3.2969
990.208	0.064224
993.583	2.21925
996.958	4.17061
1000.33	4.11441
1003.71	4.51939
1007.08	1.895
1010.46	2.16772
1013.83	5.06266
1017.21	4.15242
1020.58	0.991287
1023.96	1.22203
1027.33	1.45706
1030.71	3.25868
1034.08	4.48917
1037.46	0.630665
1040.83	4.88808
1044.2	6.12825
1047.58	6.9016
1050.95	3.18354
1054.33	4.49177
1057.7	3.76068
1061.08	1.66002
1064.45	5.27511
1067.83	4.2574
1071.2	4.49326
1074.58	2.99938
1077.95	3.46989
1081.33	4.58077
1084.7	5.58718
1088.08	1.68333
1091.45	1.04378
1094.83	0.251087
1098.2	5.73135
1101.58	2.33774
1104.95	3.91671
1108.33	2.12294
1111.7	1.9585
1115.08	4.75325
1118.45	3.3019
1121.83	3.41835
1125.2	1.2833
1128.58	1.66708
1131.95	5.67165
1135.33	5.46769
1138.7	0.828541
1142.08	3.0874
1145.45	2.69066
1148.82	0.94426
1152.2	3.37876
1155.57	1.76189
1158.95	3.66866
1162.32	1.97882
1165.7	3.15305
1169.07	7.74592
1172.45	7.68765
1175.82	6.0652
1179.2	2.89777
1182.57	4.15216
1185.95	5.68964
1189.32	6.27706
1192.7	4.74231
1196.07	3.02654
1199.45	3.85258
1202.82	4.93258
1206.2	0.169685
1209.57	1.99872
1212.95	5.04945
1216.32	2.60368
1219.7	6.73521
1223.07	1.34979
1226.44	1.41388
1229.82	4.66267
1233.19	5.86176
1236.57	6.34047
1239.94	5.89673
1243.32	2.86686
1246.69	4.00343
1250.07	3.41182
1253.44	7.01048
1256.82	1.28299
1260.19	1.21744
1263.57	3.70966
1266.94	2.61543
1270.32	3.28636
1273.69	3.67683
1277.07	0.121208
1280.44	0.91087
1283.82	0.756855
