Measurement: Raman, 780 nm, unoriented, Raman Data RAW
Mineral: Goldmanite
Rruff sample: R090043
Ideal chemistry: Ca_3_V^3+^_2_(SiO_4_)_3_
Locality: Synthetic
Source: Kevin Righter
Description: Synthesized under pressure P = 8 kbars, at temperature T = 1200 C for 12 hours.
Measured chemistry: Ca_3.00_V_2.00_(SiO_4_)_3.00_
Raman shift (cm-1)	intensity
108.9	235185
112.274	235220
115.649	235471
119.024	235738
122.399	236178
125.773	236585
129.148	237120
132.523	237514
135.898	237997
139.273	238797
142.648	238853
146.022	239263
149.397	239384
152.772	239954
156.147	240736
159.522	241185
162.897	241142
166.271	241756
169.646	241893
173.021	242403
176.396	242785
179.771	242815
183.145	243004
186.52	243363
189.895	243661
193.27	243569
196.645	243857
200.019	243968
203.394	244437
206.769	244701
210.144	244921
213.519	245629
216.893	245836
220.268	245930
223.643	246870
227.018	247177
230.393	246983
233.768	247457
237.142	247759
240.517	248522
243.892	248643
247.267	249168
250.642	248779
254.017	249231
257.391	248769
260.766	249268
264.141	249747
267.516	250250
270.891	250905
274.265	250414
277.64	250676
281.015	251285
284.39	251589
287.765	251617
291.139	251495
294.514	251726
297.889	251767
301.264	252241
304.639	252757
308.014	252840
311.388	253352
314.763	253712
318.138	253671
321.513	254048
324.888	254055
328.262	254318
331.637	254614
335.012	254777
338.387	255240
341.762	255886
345.137	255665
348.511	255564
351.886	256348
355.261	256680
358.636	256906
362.01	257172
365.385	256945
368.76	256941
372.135	257807
375.51	257455
378.885	257629
382.259	258077
385.634	258698
389.009	258705
392.384	258978
395.759	259206
399.134	260304
402.508	260690
405.883	261216
409.258	261305
412.633	262005
416.008	262122
419.382	262509
422.757	263227
426.132	263593
429.507	263376
432.882	264045
436.257	264885
439.631	264880
443.006	265769
446.381	265420
449.756	265983
453.13	266546
456.505	266718
459.88	267302
463.255	267814
466.63	267951
470.005	268625
473.379	269090
476.754	269450
480.129	269053
483.504	269857
486.879	269665
490.253	270195
493.628	270852
497.003	270941
500.378	271243
503.753	270700
507.128	270881
510.502	271587
513.877	272023
517.252	272464
520.627	272536
524.002	273335
527.376	273505
530.751	273399
534.126	273284
537.501	273808
540.876	273967
544.25	274556
547.625	274458
551	275018
554.375	275898
557.75	276727
561.125	276548
564.499	276450
567.874	277010
571.249	277625
574.624	277571
577.999	278333
581.374	278516
584.748	279056
588.123	280352
591.498	280848
594.873	280526
598.248	280981
601.622	281372
604.997	281844
608.372	282119
611.747	283217
615.122	282892
618.496	283414
621.871	284086
625.246	284964
628.621	284496
631.996	285140
635.37	286226
638.745	286409
642.12	286698
645.495	286718
648.87	287407
652.245	287716
655.619	287451
658.994	288037
662.369	288140
665.744	288489
669.119	288792
672.494	289907
675.868	290209
679.243	290585
682.618	290987
685.993	290894
689.368	291532
692.742	291850
696.117	292425
699.492	292317
702.867	292549
706.242	293424
709.616	294788
712.991	294740
716.366	295301
719.741	295392
723.116	295618
726.49	295466
729.865	296186
733.24	297210
736.615	297331
739.99	297856
743.365	298536
746.739	298420
750.114	299220
753.489	299100
756.864	299506
760.239	299852
763.614	300478
766.988	301013
770.363	300962
773.738	302681
777.113	302994
780.487	303802
783.862	304070
787.237	304905
790.612	305676
793.987	305724
797.362	306707
800.736	307142
804.111	306868
807.486	308996
810.861	309394
814.236	309618
817.611	310764
820.985	310357
824.36	311664
827.735	312271
831.11	312699
834.485	313409
837.859	314300
841.234	314340
844.609	314107
847.984	315241
851.359	315770
854.734	316180
858.108	316625
861.483	316693
864.858	317882
868.233	317722
871.607	319058
874.982	319577
878.357	319407
881.732	320054
885.107	320883
888.482	320682
891.856	321842
895.231	322333
898.606	322023
901.981	322786
905.356	322833
908.731	323786
912.105	324516
915.48	325470
918.855	325832
922.23	326445
925.605	326439
928.979	327651
932.354	328350
935.729	328245
939.104	328170
942.479	329307
945.854	329831
949.228	330474
952.603	331000
955.978	331649
959.353	332087
962.727	332099
966.102	332234
969.477	332940
972.852	333222
976.227	334221
979.602	334220
982.976	334934
986.351	335819
989.726	336758
993.101	337105
996.476	337971
999.851	338761
1003.23	339382
1006.6	340253
1009.98	341581
1013.35	341813
1016.73	342484
1020.1	343634
1023.47	344459
1026.85	345164
1030.22	345766
1033.6	346052
1036.97	346737
1040.35	347099
1043.72	348383
1047.1	349468
1050.47	350662
1053.85	350822
1057.22	351645
1060.6	352660
1063.97	353009
1067.35	353254
1070.72	354313
1074.1	354502
1077.47	355682
1080.85	356032
1084.22	356805
1087.6	356920
1090.97	358674
1094.35	358261
1097.72	359432
1101.1	360273
1104.47	360786
1107.84	361909
1111.22	362689
1114.59	362681
1117.97	363369
1121.34	364907
1124.72	366181
1128.09	365944
1131.47	366671
1134.84	368414
1138.22	368897
1141.59	370443
1144.97	371100
1148.34	371719
1151.72	372309
1155.09	373862
1158.47	375342
1161.84	376233
1165.22	378200
1168.59	377935
1171.97	378405
1175.34	379754
1178.72	381374
1182.09	381414
1185.46	383529
1188.84	384764
1192.21	384919
1195.59	385259
1198.96	386014
1202.34	387912
1205.71	388346
1209.09	388525
1212.46	390175
1215.84	390542
1219.21	390364
1222.59	391232
1225.96	391988
1229.34	393860
1232.71	394689
1236.09	395884
1239.46	396274
1242.84	397078
1246.21	398959
1249.59	399770
1252.96	401048
1256.34	401533
1259.71	401877
1263.09	402681
1266.46	404682
1269.84	405051
1273.21	406931
1276.59	407879
1279.96	408874
1283.34	410385
