Measurement: Raman, 780 nm, unoriented, Raman Data Processed
Mineral: Goudeyite
Rruff sample: R060268
Ideal chemistry: Cu^2+^_6_Al(As^5+^O_4_)_3_(OH)_6_3H_2_O
Locality: Copper Stope, Majuba Hill mine, Pershing County, Nevada, USA
Source: Michael Scott
Description: Green acicular crystals in spherical aggregates
Raman shift (cm-1)	intensity
155.655	0
158.547	5.11855
161.44	2.26524
164.333	4.47821
167.226	1.5716
170.118	1.98102
173.011	1.52499
175.904	5.18708
178.796	3.55888
181.689	0.27821
184.582	4.48194
187.474	2.40086
190.367	6.28542
193.26	6.62582
196.153	6.5744
199.045	3.36992
201.938	0.996552
204.831	7.17939
207.723	4.46784
210.616	3.16558
213.509	2.69339
216.401	2.52322
219.294	1.96649
222.187	5.91225
225.079	2.44148
227.972	6.53614
230.865	5.44282
233.758	4.40262
236.65	7.65702
239.543	5.5611
242.436	2.59625
245.328	3.92058
248.221	4.11081
251.114	6.20575
254.006	4.88563
256.899	3.72178
259.792	4.00157
262.685	6.00812
265.577	0.701885
268.47	1.61053
271.363	3.75699
274.255	2.83028
277.148	4.14787
280.041	2.75326
282.933	2.13036
285.826	2.55819
288.719	2.88892
291.612	3.39407
294.504	5.5391
297.397	2.48801
300.29	4.99101
303.182	3.4295
306.075	3.26023
308.968	2.95852
311.861	3.60457
314.753	5.59752
317.646	5.9059
320.539	3.92214
323.431	4.931
326.324	3.38674
329.217	7.893
332.109	4.66545
335.002	3.80674
337.895	0.358194
340.788	3.29183
343.68	0.03582
346.573	4.30531
349.466	2.00656
352.358	3.80822
355.251	4.39615
358.144	1.38425
361.036	0.101948
363.929	3.72228
366.822	2.64032
369.715	1.87487
372.607	2.57505
375.5	4.95821
378.393	3.72095
381.285	5.47286
384.178	0.681654
387.071	2.56964
389.964	6.0482
392.856	1.25656
395.749	2.08898
398.642	1.53562
401.534	3.61081
404.427	3.4515
407.32	1.48648
410.212	0.313366
413.105	0.446981
415.998	5.74574
418.89	4.02765
421.783	0.751923
424.676	0.093544
427.569	5.0293
430.461	3.423
433.354	4.38738
436.247	5.53342
439.139	3.82543
442.032	0.275038
444.925	2.92019
447.817	3.91913
450.71	2.37248
453.603	2.34462
456.496	3.16719
459.388	3.17481
462.281	4.23898
465.174	4.73478
468.066	5.30165
470.959	5.03071
473.852	8.80994
476.745	6.61355
479.637	6.81038
482.53	6.04284
485.423	5.73694
488.315	6.76219
491.208	8.82986
494.101	3.01554
496.993	3.75705
499.886	3.35617
502.779	3.08865
505.671	3.5327
508.564	2.42755
511.457	3.79563
514.35	5.44601
517.242	2.21691
520.135	7.43755
523.028	1.10654
525.92	0.308365
528.813	1.09229
531.706	0.821512
534.598	4.89015
537.491	3.25399
540.384	1.46704
543.277	2.91285
546.169	4.43424
549.062	6.44468
551.955	7.50357
554.847	0.262744
557.74	2.41744
560.633	4.43242
563.525	0.909545
566.418	1.76186
569.311	0.131247
572.204	3.68382
575.096	2.79451
577.989	3.03077
580.882	1.52021
583.774	0.894965
586.667	0.280648
589.56	3.70334
592.452	4.84762
595.345	3.01072
598.238	2.47796
601.131	2.61996
604.023	1.15696
606.916	4.65958
609.809	1.45702
612.701	2.32598
615.594	3.45784
618.487	3.36898
621.38	4.2952
624.272	1.80062
627.165	1.4909
630.058	1.60833
632.95	2.09808
635.843	2.4982
638.736	4.77039
641.628	3.91841
644.521	2.58317
647.414	4.82003
650.307	0.089301
653.199	1.49605
656.092	3.26322
658.985	4.47578
661.877	4.1157
664.77	1.53072
667.663	2.98376
670.555	2.40433
673.448	3.26325
676.341	0.59341
679.234	4.59976
682.126	3.96666
685.019	3.46615
687.912	3.60277
690.804	2.99604
693.697	1.12024
696.59	4.49361
699.482	2.78809
702.375	0.552542
705.268	3.85061
708.16	2.06941
711.053	2.15628
713.946	1.84528
716.839	3.53566
719.731	0.81989
722.624	1.33941
725.517	0.467694
728.409	0.80671
731.302	4.92283
734.195	1.02125
737.087	4.7945
739.98	2.02519
742.873	0.166332
745.766	0.568974
748.658	1.85434
751.551	2.75649
754.444	3.23046
757.336	1.81624
760.229	2.44769
763.122	2.47401
766.014	4.9499
768.907	0.243531
771.8	1.65335
774.693	0.875568
777.585	3.77296
780.478	2.8748
783.371	2.62949
786.263	0.229285
789.156	0.838517
792.049	3.55672
794.942	3.56023
797.834	4.43095
800.727	3.66924
803.62	1.09458
806.512	3.06482
809.405	3.64182
812.298	1.88109
815.19	6.3619
818.083	6.01738
820.976	7.3266
823.869	10.8678
826.761	8.66939
829.654	8.50871
832.547	12.1433
835.439	14.0536
838.332	11.8768
841.225	11.8794
844.117	11.8895
847.01	8.86739
849.903	6.8489
852.795	8.74007
855.688	13.1173
858.581	13.5574
861.474	14.9785
864.366	12.0857
867.259	15.1309
870.152	18.7621
873.044	12.9587
875.937	13.4308
878.83	15.4486
881.722	9.99774
884.615	7.94465
887.508	5.79978
890.401	7.97056
893.293	4.47617
896.186	3.46812
899.079	0.125789
901.971	4.87714
904.864	0.184556
907.757	0.537293
910.649	0.712012
913.542	3.09797
916.435	2.07554
919.328	3.36676
922.22	4.76208
925.113	3.47309
928.006	2.12815
930.898	4.60659
933.791	4.48718
936.684	6.84794
939.577	2.91863
942.469	1.9682
945.362	2.09963
948.255	6.69735
951.147	0.077598
954.04	2.35317
956.933	1.97109
959.825	1.65446
962.718	0.928713
965.611	4.75549
968.504	0.133415
971.396	2.67051
974.289	3.68572
977.182	4.44275
980.074	4.14903
982.967	1.34264
985.86	2.59997
988.752	0.751736
991.645	6.11703
994.538	5.31014
997.431	1.01985
1000.32	3.55518
1003.22	3.37838
1006.11	0.05008
1009	1.94494
1011.89	4.56068
1014.79	6.32103
1017.68	2.2871
1020.57	3.32185
1023.47	4.21019
1026.36	2.84904
1029.25	2.69768
1032.14	1.24617
1035.04	1.27886
1037.93	2.75913
1040.82	1.29721
1043.71	2.75258
1046.61	3.74771
1049.5	4.34683
1052.39	3.04212
1055.29	1.12275
1058.18	0.661641
1061.07	2.86127
1063.96	4.43647
1066.86	0.264083
1069.75	0.067817
1072.64	2.02582
1075.53	3.53614
1078.43	0.462584
1081.32	0.735755
1084.21	4.47634
1087.1	1.18692
1090	2.86133
1092.89	0.54276
1095.78	2.64969
1098.67	1.7747
1101.57	1.67977
1104.46	2.31865
1107.35	5.05042
1110.25	4.28854
1113.14	0.763012
1116.03	2.01184
1118.92	0.715044
1121.82	1.97869
1124.71	4.32332
1127.6	1.34926
1130.49	2.52395
1133.39	4.0297
1136.28	5.82979
1139.17	4.22033
1142.07	1.73116
1144.96	1.48269
1147.85	3.32158
1150.74	5.33032
1153.64	1.45736
1156.53	5.98009
1159.42	4.88226
1162.31	6.14111
1165.21	1.41927
1168.1	2.05707
1170.99	6.55231
1173.88	2.61604
1176.78	4.35571
1179.67	6.83687
1182.56	7.17893
1185.46	2.57671
1188.35	1.96151
1191.24	3.66336
1194.13	4.08574
1197.03	3.32444
1199.92	4.77844
1202.81	3.61976
1205.7	0.144384
1208.6	4.88664
1211.49	2.86868
1214.38	3.17939
1217.28	3.05266
1220.17	5.21843
1223.06	2.45563
1225.95	5.73617
1228.85	1.73334
1231.74	4.21607
1234.63	1.4222
1237.53	4.50039
1240.42	2.75253
1243.31	5.998
1246.2	3.25618
1249.1	2.19629
1251.99	3.30837
1254.88	1.35541
1257.77	1.44029
1260.67	1.5414
1263.56	0.233142
1266.45	6.31918
1269.34	3.95752
1272.24	7.1225
1275.13	4.63262
1278.02	4.32424
1280.91	5.56373
1283.81	2.38718
