Measurement: Raman, 780 nm, unoriented, Raman Data Processed
Mineral: Grandviewite
Rruff sample: R070667
Ideal chemistry: Cu^2+^_3_Al_9_(S^6+^O_4_)_2_(OH)_29_
Locality: Grand View mine, Coconino County, Arizona, USA
Source: George Stevens, Malcom Alter
Description: Light blue sprays of fibrous crystals associated with blue cyanotrichite.
Raman shift (cm-1)	intensity
163.668	0
166.561	57.0564
169.454	86.0387
172.346	22.0148
175.239	1.07483
178.132	95.0772
181.024	77.9717
183.917	96.9574
186.81	108.72
189.702	37.7776
192.595	74.1371
195.488	130.267
198.381	76.7203
201.273	64.3505
204.166	54.2647
207.059	68.094
209.951	64.2191
212.844	96.078
215.737	94.4993
218.63	81.3757
221.522	85.1553
224.415	80.613
227.308	72.9916
230.2	69.5234
233.093	42.6746
235.986	101.179
238.878	94.0237
241.771	18.5989
244.664	84.1412
247.556	2.62793
250.449	5.99182
253.342	8.6814
256.235	93.3678
259.127	31.4076
262.02	98.4359
264.913	59.5902
267.805	103.957
270.698	42.954
273.591	86.4673
276.483	32.294
279.376	36.3091
282.269	25.8217
285.162	70.4034
288.054	133.498
290.947	49.7784
293.84	3.0835
296.733	20.5532
299.625	34.5263
302.518	15.3987
305.411	24.9594
308.303	25.1054
311.196	18.8688
314.089	5.29303
316.981	77.3767
319.874	26.3881
322.767	12.7058
325.659	76.0128
328.552	0.939209
331.445	85.3933
334.338	3.53565
337.23	22.6388
340.123	17.0309
343.016	44.2486
345.908	87.9282
348.801	69.8516
351.694	44.1614
354.587	15.0273
357.479	58.2059
360.372	22.5529
363.265	58.4382
366.157	68.994
369.05	85.7158
371.943	69.5513
374.835	58.4475
377.728	72.2399
380.621	61.4804
383.514	46.2217
386.406	62.535
389.299	62.0516
392.192	65.8295
395.084	61.3704
397.977	55.4116
400.87	65.2502
403.762	77.7329
406.655	82.8286
409.548	83.6368
412.44	93.1632
415.333	62.5856
418.226	102.758
421.119	11.1194
424.011	96.4208
426.904	58.6925
429.797	91.7623
432.689	67.4068
435.582	91.7165
438.475	142.466
441.368	63.4188
444.26	23.851
447.153	18.0996
450.046	73.1182
452.938	94.0841
455.831	93.4258
458.724	20.4402
461.616	37.7579
464.509	77.8278
467.402	69.0397
470.295	6.41107
473.187	114.85
476.08	138.804
478.973	73.7634
481.865	69.0196
484.758	136.641
487.651	80.9871
490.543	175.667
493.436	145.61
496.329	72.773
499.221	111.019
502.114	97.9378
505.007	124.405
507.9	96.102
510.792	80.0157
513.685	85.9037
516.578	68.8444
519.471	140.778
522.363	69.6152
525.256	149.987
528.149	143.037
531.041	69.1526
533.934	121.903
536.827	142.716
539.719	75.3411
542.612	62.3701
545.505	50.5029
548.398	50.4263
551.29	36.4355
554.183	64.2125
557.076	55.6665
559.968	46.7522
562.861	21.5531
565.754	105.757
568.646	20.7602
571.539	19.4346
574.432	63.2278
577.324	92.013
580.217	19.8975
583.11	56.9966
586.003	105.753
588.895	124.229
591.788	34.5504
594.681	33.2992
597.573	56.8078
600.466	87.3969
603.359	77.711
606.251	108.187
609.144	24.5636
612.037	7.25012
614.93	78.6081
617.822	29.3413
620.715	26.1798
623.608	81.5346
626.5	37.1391
629.393	10.5228
632.286	13.313
635.178	24.6636
638.071	109.185
640.964	81.9972
643.857	51.3606
646.749	80.8339
649.642	46.1562
652.535	36.0701
655.427	20.729
658.32	89.4194
661.213	85.9794
664.106	4.68744
666.998	8.32135
669.891	4.94269
672.784	22.4587
675.676	35.6974
678.569	24.5344
681.462	38.9513
684.354	89.8339
687.247	55.6199
690.14	70.3087
693.033	1.42914
695.925	21.3097
698.818	87.9515
701.711	78.641
704.603	11.5395
707.496	17.5235
710.389	3.65387
713.281	115.85
716.174	130.858
719.067	38.9811
721.96	67.0558
724.852	121.821
727.745	27.1545
730.638	5.53033
733.53	24.7058
736.423	49.29
739.316	56.0361
742.208	72.9591
745.101	94.0223
747.994	96.2729
750.886	56.8524
753.779	43.9943
756.672	62.423
759.565	35.2848
762.457	127.78
765.35	51.1647
768.243	32.0554
771.135	50.0231
774.028	24.7238
776.921	57.9289
779.813	71.0006
782.706	76.3573
785.599	74.6071
788.492	73.9289
791.384	77.8135
794.277	73.1086
797.17	51.9789
800.062	39.1196
802.955	73.1812
805.848	53.6575
808.74	4.4198
811.633	34.9148
814.526	47.7832
817.419	19.3355
820.311	33.3881
823.204	0.911987
826.097	103.305
828.989	105.813
831.882	100.486
834.775	39.4875
837.668	54.6676
840.56	31.5591
843.453	63.1724
846.346	3.25256
849.238	56.2911
852.131	58.3771
855.024	58.874
857.917	20.0924
860.809	36.6265
863.702	61.6023
866.595	52.3619
869.487	66.4974
872.38	41.2922
875.273	30.069
878.165	8.73035
881.058	32.8346
883.951	39.34
886.843	31.621
889.736	59.3716
892.629	37.97
895.522	48.2602
898.414	33.0242
901.307	55.9042
904.2	38.105
907.092	24.5234
909.985	31.3623
912.878	63.1827
915.77	19.3
918.663	78.6218
921.556	38.8661
924.449	22.1183
927.341	9.29346
930.234	82.765
933.127	31.7546
936.019	4.97327
938.912	7.73144
941.805	11.6716
944.697	59.0225
947.59	28.1752
950.483	30.4032
953.376	109.411
956.268	75.8969
959.161	141.851
962.054	275.213
964.946	335.07
967.839	371.811
970.732	294.805
973.625	281.951
976.517	156.096
979.41	97.3505
982.303	126.098
985.195	66.0031
988.088	42.7523
990.981	15.6066
993.873	49.8931
996.766	64.7517
999.659	71.5476
1002.55	40.5011
1005.44	38.1714
1008.34	11.1934
1011.23	30.6179
1014.12	60.6455
1017.01	69.8094
1019.91	38.1926
1022.8	35.9469
1025.69	46.0792
1028.59	55.2631
1031.48	73.2234
1034.37	73.3744
1037.26	48.3969
1040.16	82.3397
1043.05	26.9523
1045.94	14.6858
1048.84	38.373
1051.73	30.1727
1054.62	85.3146
1057.51	67.9214
1060.41	41.8411
1063.3	57.356
1066.19	61.4186
1069.08	85.2524
1071.98	41.7986
1074.87	67.9639
1077.76	96.6215
1080.65	70.8218
1083.55	31.967
1086.44	39.0081
1089.33	43.879
1092.22	39.3926
1095.12	86.7429
1098.01	136.874
1100.9	68.0704
1103.8	85.1166
1106.69	47.0006
1109.58	48.6615
1112.47	75.6981
1115.37	42.3754
1118.26	7.1654
1121.15	36.0247
1124.05	85.6431
1126.94	45.5161
1129.83	60.385
1132.72	112.726
1135.62	22.3377
1138.51	104.597
1141.4	34.7286
1144.29	55.0734
1147.19	60.5201
1150.08	23.7943
1152.97	39.0344
1155.87	62.291
1158.76	94.4589
1161.65	58.9763
1164.54	56.5248
1167.44	54.9526
1170.33	73.3389
1173.22	38.1389
1176.11	75.4525
1179.01	62.4421
1181.9	25.4106
1184.79	26.1248
1187.68	20.5467
1190.58	38.4006
1193.47	43.4424
1196.36	63.8688
1199.26	0.521484
1202.15	61.8678
1205.04	40.1398
1207.93	41.8732
1210.83	42.6844
1213.72	2.55762
1216.61	37.2755
1219.5	34.9606
1222.4	63.9074
1225.29	72.4928
1228.18	43.2833
1231.08	21.4034
1233.97	10.4874
1236.86	23.761
1239.75	69.1498
1242.65	24.946
1245.54	26.2723
1248.43	36.3507
1251.32	37.0808
1254.22	20.2913
1257.11	43.155
1260	47.9126
1262.89	7.52588
1265.79	67.4517
1268.68	58.3334
1271.57	50.9485
1274.46	82.5478
1277.36	72.6465
1280.25	48.6038
1283.14	116.026
1286.04	19.9078
1288.93	56.6461
