Measurement: Raman, 532 nm, unoriented, Raman Data Processed
Mineral: Graphite
Rruff sample: R120025
Ideal chemistry: C
Locality: Saint-Sauveur Graphite occurrence, Saint-Sauveur, Les Pays-d'en-Haut RCM, Laurentides, Qu√©bec, Canada
Source: Donald Doell
Description: Semi-metallic, dark gray flakes
Raman shift (cm-1)	intensity
177.107	0
180	0.610265
182.892	0.82323
185.785	0.242942
188.678	0.717584
191.57	1.17729
194.463	1.70304
197.356	1.4301
200.249	0.575848
203.141	0.27626
206.034	0.387313
208.927	0.178281
211.819	0.347905
214.712	0.603967
217.605	0.076735
220.497	0.044616
223.39	0.303833
226.283	0.195954
229.175	0.209144
232.068	0.291104
234.961	0.277659
237.854	0.042006
240.746	0.256764
243.639	0.449924
246.532	0.128211
249.424	0.701233
252.317	0.009041
255.21	0.7439
258.103	0.439101
260.995	0.647573
263.888	0.381388
266.781	0.809527
269.673	0.601827
272.566	1.18455
275.459	1.22468
278.351	0.846474
281.244	0.960492
284.137	0.712986
287.029	0.464417
289.922	0.316524
292.815	0.305462
295.708	0.521247
298.6	0.321082
301.493	0.26705
304.386	0.202022
307.278	0.116529
310.171	0.392953
313.064	0.014348
315.957	0.195374
318.849	0.011369
321.742	0.103609
324.635	0.13638
327.527	0.091895
330.42	0.196015
333.313	0.316249
336.205	0.082011
339.098	0.12302
341.991	0.310643
344.884	0.266617
347.776	0.273476
350.669	0.004979
353.562	0.406198
356.454	0.096249
359.347	0.320276
362.24	0.195237
365.132	0.169143
368.025	0.296788
370.918	0.351109
373.81	0.263443
376.703	0.435744
379.596	0.394138
382.489	0.193852
385.381	0.021488
388.274	0.442579
391.167	0.230179
394.059	0.086048
396.952	0.325715
399.845	0.152405
402.738	0.434305
405.63	0.742429
408.523	0.5077
411.416	0.581364
414.308	0.283841
417.201	0.173845
420.094	0.414115
422.986	0.179382
425.879	0.350695
428.772	0.057259
431.664	0.083848
434.557	0.232867
437.45	0.302488
440.343	0.29577
443.235	0.280968
446.128	0.217752
449.021	0.201431
451.913	0.207992
454.806	0.351166
457.699	0.405562
460.591	0.222794
463.484	0.112878
466.377	0.24787
469.27	0.374688
472.162	0.093444
475.055	0.397224
477.948	0.123416
480.84	0.448025
483.733	0.570633
486.626	0.247015
489.519	0.187122
492.411	0.217065
495.304	0.368686
498.197	0.277596
501.089	0.3269
503.982	0.121413
506.875	0.247054
509.767	0.262595
512.66	0.222639
515.553	0.257241
518.446	0.340422
521.338	0.134067
524.231	0.05806
527.124	0.015892
530.016	0.102891
532.909	0.051731
535.802	0.411725
538.694	0.229383
541.587	0.294382
544.48	0.437789
547.372	0.223349
550.265	0.152102
553.158	0.077778
556.051	0.115315
558.943	0.084964
561.836	0.114852
564.729	0.238246
567.621	0.388209
570.514	0.313699
573.407	0.233619
576.299	0.096727
579.192	0.116059
582.085	0.013057
584.978	0.351415
587.87	0.146327
590.763	0.178487
593.656	0.444152
596.548	0.288903
599.441	0.16585
602.334	0.150872
605.226	0.521521
608.119	0.006956
611.012	0.242018
613.905	0.242899
616.797	0.158939
619.69	0.144861
622.583	0.110308
625.475	0.127812
628.368	0.205663
631.261	0.314142
634.154	0.252918
637.046	0.21865
639.939	0.221222
642.832	0.456057
645.724	0.225344
648.617	0.473797
651.51	0.226375
654.402	0.154986
657.295	0.139084
660.188	0.110847
663.081	0.30274
665.973	0.025739
668.866	0.287872
671.759	0.169328
674.651	0.337683
677.544	0.460742
680.437	0.265265
683.329	0.122526
686.222	0.241902
689.115	0.27203
692.008	0.101158
694.9	0.021927
697.793	0.351562
700.686	0.006273
703.578	0.261253
706.471	0.212014
709.364	0.296226
712.256	0.02913
715.149	0.507461
718.042	0.49177
720.934	0.525392
723.827	0.187421
726.72	0.215183
729.613	0.025099
732.505	0.11277
735.398	0.278345
738.291	0.203751
741.183	0.273891
744.076	0.330528
746.969	0.424417
749.861	0.091453
752.754	0.115933
755.647	0.080055
758.54	0.227184
761.432	0.172075
764.325	0.22005
767.218	0.183528
770.11	0.217285
773.003	0.149046
775.896	0.058791
778.788	0.245637
781.681	0.236807
784.574	0.208382
787.467	0.289541
790.359	0.036285
793.252	0.308981
796.145	0.06692
799.037	0.222386
801.93	0.249113
804.823	0.227523
807.716	0.101402
810.608	0.153822
813.501	0.064335
816.394	0.269535
819.286	0.322474
822.179	0.10471
825.072	0.028278
827.964	0.141603
830.857	0.165431
833.75	0.040196
836.643	0.419035
839.535	0.088316
842.428	0.105116
845.321	0.022329
848.213	0.142897
851.106	0.228575
853.999	0.396428
856.891	0.231964
859.784	0.000595
862.677	0.055807
865.569	0.390653
868.462	1.11574
871.355	0.372168
874.248	0.152913
877.14	0.175921
880.033	0.000356
882.926	0.042614
885.818	0.048027
888.711	0.222489
891.604	0.145836
894.496	0.087178
897.389	0.189307
900.282	0.031045
903.175	0.142271
906.067	0.280292
908.96	0.255879
911.853	0.191769
914.745	0.048047
917.638	0.395394
920.531	0.114143
923.423	0.293158
926.316	0.363091
929.209	0.153105
932.102	0.275462
934.994	0.33478
937.887	0.104403
940.78	0.33601
943.672	0.158985
946.565	0.100168
949.458	0.277138
952.351	0.008304
955.243	0.41591
958.136	0.229358
961.029	0.277829
963.921	0.23853
966.814	0.166746
969.707	0.209185
972.599	0.480515
975.492	0.348073
978.385	0.436494
981.278	0.509509
984.17	0.19643
987.063	0.241918
989.956	0.223813
992.848	0.208073
995.741	0.122329
998.634	0.3255
1001.53	0.396665
1004.42	0.007813
1007.31	0.272358
1010.21	0.216028
1013.1	0.069957
1015.99	0.085392
1018.88	0.120729
1021.77	0.108826
1024.67	0.205783
1027.56	0.068291
1030.45	0.126521
1033.35	0.263987
1036.24	0.039832
1039.13	0.71795
1042.02	0.33373
1044.92	0.093323
1047.81	0.136223
1050.7	0.252447
1053.6	0.339513
1056.49	0.296231
1059.38	0.318264
1062.27	0.142369
1065.17	0.438156
1068.06	0.048944
1070.95	0.179323
1073.84	0.598505
1076.74	0.19863
1079.63	0.495213
1082.52	0.417756
1085.41	0.420116
1088.31	0.233291
1091.2	0.453151
1094.09	0.453348
1096.99	0.341512
1099.88	0.227339
1102.77	0.367523
1105.66	0.017833
1108.56	0.755977
1111.45	0.144619
1114.34	0.065006
1117.23	0.403761
1120.13	0.507934
1123.02	0.238914
1125.91	0.169862
1128.81	0.151664
1131.7	0.064128
1134.59	0.319766
1137.48	0.150966
1140.38	0.19666
1143.27	0.165109
1146.16	0.048471
1149.05	0.107975
1151.95	0.160131
1154.84	0.259449
1157.73	0.077525
1160.62	0.178281
1163.52	0.181746
1166.41	0.338083
1169.3	0.161306
1172.2	0.092492
1175.09	0.361834
1177.98	0.291917
1180.87	0.260693
1183.77	0.269981
1186.66	0.235142
1189.55	0.408802
1192.44	0.171045
1195.34	0.038449
1198.23	0.000318
1201.12	0.282734
1204.02	0.088319
1206.91	0.062694
1209.8	0.222707
1212.69	0.421798
1215.59	0.44594
1218.48	0.17433
1221.37	0.273587
1224.26	0.2293
1227.16	0.108674
1230.05	0.322989
1232.94	0.396189
1235.84	0.292357
1238.73	0.234889
1241.62	0.094818
1244.51	0.121398
1247.41	0.219514
1250.3	0.258698
1253.19	0.186729
1256.08	0.211391
1258.98	0.068074
1261.87	0.518203
1264.76	0.175924
1267.65	0.3401
1270.55	0.351005
1273.44	0.109342
1276.33	0.240409
1279.23	0.082344
1282.12	0.040839
1285.01	0.182064
1287.9	0.296251
1290.8	0.434791
1293.69	0.128558
1296.58	0.06688
1299.47	0.056618
