Measurement: Raman, 780 nm, unoriented, Raman Data Processed
Mineral: Graphite
Rruff sample: R120025
Ideal chemistry: C
Locality: Saint-Sauveur Graphite occurrence, Saint-Sauveur, Les Pays-d'en-Haut RCM, Laurentides, Qu√©bec, Canada
Source: Donald Doell
Description: Semi-metallic, dark gray flakes
Raman shift (cm-1)	intensity
116.27	0
119.644	0.033031
123.019	0.714709
126.394	0.718748
129.769	0.833899
133.144	0.450664
136.518	0.580387
139.893	1.17554
143.268	0.22743
146.643	0.348698
150.018	0.805983
153.393	0.584173
156.767	0.055204
160.142	0.045039
163.517	0.039289
166.892	0.477691
170.267	0.199559
173.642	0.029225
177.016	0.004411
180.391	0.35386
183.766	0.271218
187.141	0.243179
190.516	0.237454
193.89	0.281005
197.265	0.435234
200.64	0.249374
204.015	0.560913
207.39	0.660316
210.764	0.510575
214.139	0.559684
217.514	0.623174
220.889	0.677156
224.264	1.0073
227.638	0.687896
231.013	0.819973
234.388	0.872059
237.763	1.00503
241.138	1.20427
244.513	1.11705
247.887	1.09522
251.262	0.5816
254.637	0.786405
258.012	0.748024
261.387	0.72447
264.762	0.381081
268.136	0.504024
271.511	0.159455
274.886	0.430015
278.261	0.390673
281.635	0.328763
285.01	0.265978
288.385	0.021703
291.76	0.4034
295.135	0.148485
298.51	0.408411
301.884	0.252124
305.259	0.429172
308.634	0.072965
312.009	0.34399
315.384	0.346266
318.759	0.212993
322.133	0.241135
325.508	0.078833
328.883	0.252657
332.258	0.116327
335.633	0.103921
339.007	0.150324
342.382	0.308237
345.757	0.123992
349.132	0.205621
352.507	0.056361
355.882	0.258837
359.256	0.230695
362.631	0.105121
366.006	0.305347
369.381	0.211036
372.755	0.454462
376.13	0.294558
379.505	0.313073
382.88	0.07588
386.255	0.135751
389.63	0.157918
393.004	0.302171
396.379	0.486296
399.754	0.09051
403.129	0.248434
406.504	0.275763
409.878	0.11083
413.253	0.037934
416.628	0.068871
420.003	0.307857
423.378	0.104884
426.753	0.154769
430.127	0.217268
433.502	0.286324
436.877	0.134082
440.252	0.345217
443.627	0.163238
447.001	0.17749
450.376	0.106258
453.751	0.217711
457.126	0.271941
460.501	0.362822
463.875	0.18431
467.25	0.466259
470.625	0.627626
474	0.071872
477.375	0.045384
480.75	0.216628
484.124	0.234282
487.499	0.184248
490.874	0.253973
494.249	0.243499
497.624	0.093146
500.998	0.210024
504.373	0.288761
507.748	0.318305
511.123	0.236602
514.498	0.214566
517.873	0.310979
521.247	0.030606
524.622	0.22729
527.997	0.254289
531.372	0.086711
534.747	0.195339
538.121	0.456836
541.496	0.502659
544.871	0.378337
548.246	0.081633
551.621	0.145733
554.995	0.237931
558.37	0.234418
561.745	0.278584
565.12	0.336794
568.495	0.454935
571.87	0.166693
575.244	0.284812
578.619	0.12297
581.994	0.144881
585.369	0.238203
588.744	0.237494
592.119	0.40725
595.493	0.046407
598.868	0.010136
602.243	0.403702
605.618	0.048777
608.993	0.545142
612.367	0.275014
615.742	0.393207
619.117	0.28088
622.492	0.46876
625.867	0.079136
629.241	0.510422
632.616	0.327667
635.991	0.289854
639.366	0.460909
642.741	0.287501
646.115	0.385103
649.49	0.182619
652.865	0.387089
656.24	0.26469
659.615	0.335069
662.99	0.027032
666.364	0.432194
669.739	0.446999
673.114	0.242878
676.489	0.488366
679.864	0.317942
683.239	0.353568
686.613	0.171935
689.988	0.293599
693.363	0.016712
696.738	0.091551
700.112	0.471132
703.487	0.282139
706.862	0.394408
710.237	0.384416
713.612	0.334229
716.987	0.473088
720.361	0.31218
723.736	0.053042
727.111	0.331786
730.486	0.222761
733.861	0.401236
737.236	0.209372
740.61	0.229648
743.985	0.629069
747.36	0.105601
750.735	0.042033
754.11	0.12089
757.484	0.132219
760.859	0.532078
764.234	0.353439
767.609	0.211945
770.984	0.030711
774.359	0.444944
777.733	0.251174
781.108	0.665277
784.483	0.21769
787.858	0.265478
791.232	0.147686
794.607	0.28935
797.982	0.020489
801.357	0.038821
804.732	0.141439
808.107	0.287225
811.481	0.232111
814.856	0.420925
818.231	0.188638
821.606	0.196108
824.981	0.14195
828.356	0.057044
831.73	0.06688
835.105	0.050534
838.48	0.178124
841.855	0.362287
845.23	0.017069
848.604	0.365882
851.979	0.419565
855.354	0.113441
858.729	0.649359
862.104	0.431594
865.479	0.391455
868.853	0.001821
872.228	0.189917
875.603	0.260375
878.978	0.199713
882.352	0.286064
885.727	0.275416
889.102	0.163415
892.477	0.026294
895.852	0.430424
899.227	0.243312
902.601	0.119299
905.976	0.423749
909.351	0.233768
912.726	0.429033
916.101	0.353571
919.476	0.252889
922.85	0.60468
926.225	0.824944
929.6	0.19652
932.975	0.496959
936.35	0.59973
939.724	0.109089
943.099	0.352964
946.474	0.328575
949.849	0.155535
953.224	0.342073
956.598	0.266708
959.973	0.143493
963.348	0.598335
966.723	0.636328
970.098	0.350208
973.472	0.436887
976.847	0.434208
980.222	0.153151
983.597	0.291577
986.972	0.475233
990.347	0.442218
993.721	0.521621
997.096	0.587003
1000.47	0.311886
1003.85	0.311605
1007.22	0.37372
1010.6	0.291117
1013.97	0.243319
1017.35	0.063484
1020.72	0.142655
1024.1	0.281933
1027.47	0.21668
1030.84	0.490416
1034.22	0.085208
1037.59	0.427604
1040.97	0.379259
1044.34	0.419295
1047.72	0.322914
1051.09	0.234055
1054.47	0.142572
1057.84	0.211641
1061.22	0.065406
1064.59	0.06275
1067.97	0.367818
1071.34	0.378906
1074.72	0.412119
1078.09	0.370242
1081.47	0.378061
1084.84	0.316752
1088.22	0.647686
1091.59	0.143644
1094.97	0.223732
1098.34	0.021871
1101.71	0.010991
1105.09	0.202166
1108.46	0.673413
1111.84	0.452372
1115.21	0.212269
1118.59	0.194797
1121.96	0.398773
1125.34	0.044946
1128.71	0.206152
1132.09	0.543095
1135.46	0.103316
1138.84	0.01019
1142.21	0.160255
1145.59	0.066693
1148.96	0.190203
1152.34	0.04815
1155.71	0.045374
1159.09	0.115677
1162.46	0.226176
1165.84	0.302777
1169.21	0.189977
1172.59	0.021179
1175.96	0.3985
1179.34	0.857285
1182.71	0.163773
1186.09	0.333951
1189.46	0.111307
1192.84	0.364032
1196.21	0.440911
1199.59	0.50303
1202.96	0.246305
1206.34	0.083948
1209.71	0.511244
1213.08	0.690578
1216.46	0.188965
1219.83	0.346616
1223.21	0.290951
1226.58	0.220805
1229.96	0.449862
1233.33	0.521486
1236.71	0.282131
1240.08	0.171337
1243.46	0.484263
1246.83	0.177219
1250.21	0.417162
1253.58	0.561906
1256.96	0.062395
1260.33	0.358415
1263.71	0.727358
1267.08	0.178045
1270.46	0.440612
1273.83	0.783439
1277.21	0.096335
1280.58	0.314435
1283.95	0
