Measurement: Raman, 532 nm, unoriented, Raman Data Processed
Mineral: Gratonite
Rruff sample: R060956
Ideal chemistry: Pb^2+^_9_As^3+^_4_S^2-^_15_
Locality: Rio Tinto mine, Rio Tinto, Huelva Province, Spain
Source: Bob Jenkins
Description: Dark-gray metallic elongated prismatic trigonal crystals
Measured chemistry: Pb_9.00_As_4.00_S_15.00_
Raman shift (cm-1)	intensity
119.112	0
122.487	28.0661
125.862	0.005844
129.237	23.9303
132.612	40.5492
135.987	7.80681
139.361	47.9826
142.736	27.0918
146.111	16.4728
149.486	20.3616
152.861	3.68639
156.235	20.8143
159.61	13.0511
162.985	21.9045
166.36	15.0946
169.735	11.0845
173.109	27.9504
176.484	15.4853
179.859	15.8608
183.234	22.1194
186.609	16.824
189.983	26.0469
193.358	42.8907
196.733	48.6948
200.108	35.8987
203.483	35.5391
206.858	34.0553
210.232	41.2222
213.607	46.9748
216.982	11.0576
220.357	1.31743
223.732	4.63439
227.107	10.149
230.481	4.84582
233.856	12.4054
237.231	11.3419
240.606	27.1603
243.981	24.5353
247.355	2.89529
250.73	5.40868
254.105	19.3214
257.48	3.82124
260.855	25.8619
264.229	37.3841
267.604	12.3643
270.979	25.476
274.354	19.5273
277.729	18.8569
281.103	15.2218
284.478	14.9477
287.853	9.18629
291.228	7.31796
294.603	16.5832
297.978	1.21091
301.352	7.10643
304.727	36.4182
308.102	8.09909
311.477	14.5913
314.852	27.5365
318.226	22.2823
321.601	16.4065
324.976	26.7227
328.351	30.1545
331.726	4.94704
335.101	32.6362
338.475	11.8958
341.85	34.286
345.225	18.2372
348.6	15.0891
351.975	6.49609
355.349	17.3474
358.724	14.7361
362.099	10.0268
365.474	19.3735
368.849	19.5715
372.224	22.3129
375.598	17.2146
378.973	33.6938
382.348	29.77
385.723	33.311
389.098	19.5962
392.472	31.2806
395.847	12.7081
399.222	4.01124
402.597	6.63767
405.972	3.81715
409.346	18.9446
412.721	16.1995
416.096	11.2534
419.471	14.2586
422.846	24.9878
426.221	11.0238
429.595	20.2687
432.97	3.78078
436.345	7.8251
439.72	11.7194
443.094	19.423
446.469	19.132
449.844	24.4591
453.219	29.193
456.594	22.3048
459.969	36.1938
463.343	14.4528
466.718	12.7091
470.093	0.245506
473.468	24.7673
476.843	44.3573
480.217	5.0401
483.592	2.21342
486.967	15.1508
490.342	11.2489
493.717	23.2977
497.092	17.2855
500.466	13.7649
503.841	10.5268
507.216	17.1511
510.591	18.1367
513.966	23.7809
517.341	28.0119
520.715	15.5043
524.09	28.396
527.465	23.5428
530.84	6.52504
534.215	32.1789
537.589	8.248
540.964	33.5692
544.339	1.4772
547.714	26.1502
551.089	28.181
554.463	22.3781
557.838	18.835
561.213	37.1251
564.588	9.72481
567.963	13.0946
571.337	7.76248
574.712	30.5652
578.087	33.6629
581.462	0.666573
584.837	19.2558
588.212	28.418
591.586	25.1288
594.961	18.0103
598.336	10.9477
601.711	12.4425
605.086	10.3482
608.46	23.8
611.835	30.6202
615.21	21.4946
618.585	7.42169
621.96	25.313
625.335	11.9311
628.709	26.0794
632.084	5.92236
635.459	10.2718
638.834	18.2592
642.209	14.256
645.583	7.61482
648.958	9.93429
652.333	20.4882
655.708	18.6801
659.083	2.81192
662.457	38.4822
665.832	11.9857
669.207	12.4449
672.582	7.1339
675.957	2.69925
679.332	24.0258
682.706	29.7403
686.081	12.6307
689.456	20.6371
692.831	20.396
696.206	18.485
699.58	43.6559
702.955	13.3731
706.33	29.661
709.705	12.1177
713.08	23.1693
716.455	26.2396
719.829	3.70139
723.204	5.39348
726.579	18.3534
729.954	19.3469
733.328	16.0201
736.703	7.1233
740.078	5.91738
743.453	34.7309
746.828	5.18365
750.203	34.642
753.577	29.6365
756.952	11.1054
760.327	15.1517
763.702	18.7772
767.077	13.5157
770.452	7.20212
773.826	30.3524
777.201	9.69395
780.576	30.6358
783.951	29.3202
787.326	16.1513
790.7	17.9024
794.075	8.46068
797.45	30.1849
800.825	7.2621
804.2	16.2958
807.574	13.2318
810.949	13.605
814.324	0.03157
817.699	26.4709
821.074	7.95578
824.448	20.3029
827.823	2.55587
831.198	11.5353
834.573	31.5276
837.948	4.56419
841.323	26.5416
844.697	25.233
848.072	15.462
851.447	23.2746
854.822	28.944
858.197	18.1857
861.571	21.079
864.946	0.647194
868.321	3.04816
871.696	32.6942
875.071	11.8314
878.446	23.2164
881.82	41.682
885.195	23.421
888.57	36.3215
891.945	10.4292
895.32	3.7567
898.694	18.7821
902.069	27.8463
905.444	41.2058
908.819	37.465
912.194	30.6448
915.568	29.6568
918.943	17.416
922.318	18.0402
925.693	23.3026
929.068	19.5936
932.442	5.56623
935.817	4.1361
939.192	30.7403
942.567	4.51393
945.942	30.6236
949.317	5.59073
952.691	18.0332
956.066	16.7546
959.441	15.4681
962.816	20.6326
966.191	31.1739
969.566	4.34281
972.94	16.1879
976.315	25.155
979.69	9.23379
983.065	17.3105
986.439	8.79462
989.814	0.981796
993.189	26.7644
996.564	24.5277
999.939	24.8706
1003.31	19.536
1006.69	19.085
1010.06	17.6876
1013.44	35.5522
1016.81	24.3841
1020.19	17.8559
1023.56	37.8331
1026.94	2.6377
1030.31	7.76164
1033.69	21.7127
1037.06	9.00857
1040.44	22.7329
1043.81	31.1011
1047.19	17.2653
1050.56	15.4943
1053.94	40.2363
1057.31	36.8723
1060.68	14.2558
1064.06	33.6783
1067.43	13.612
1070.81	9.74725
1074.18	45.0299
1077.56	5.15186
1080.93	1.22279
1084.31	42.962
1087.68	9.34818
1091.06	24.0513
1094.43	24.8669
1097.81	18.9407
1101.18	33.5488
1104.56	44.7786
1107.93	14.1548
1111.31	21.1607
1114.68	21.6421
1118.06	2.43142
1121.43	20.8308
1124.81	25.4397
1128.18	28.439
1131.56	33.3558
1134.93	34.9914
1138.31	15.3591
1141.68	23.9252
1145.06	5.57389
1148.43	16.4197
1151.81	26.9806
1155.18	3.39907
1158.56	5.95374
1161.93	6.49509
1165.31	29.3787
1168.68	30.6211
1172.05	6.52921
1175.43	15.531
1178.8	5.51225
1182.18	4.58498
1185.55	28.2175
1188.93	44.3707
1192.3	40.6366
1195.68	10.001
1199.05	0.972145
1202.43	28.3173
1205.8	20.5737
1209.18	39.07
1212.55	22.9349
1215.93	8.76053
1219.3	30.91
1222.68	18.6665
1226.05	15.7492
1229.43	28.5645
1232.8	14.9806
1236.18	36.5178
1239.55	34.7973
1242.92	1.40833
1246.3	18.5797
1249.67	14.5049
1253.05	1.32074
1256.42	31.4903
1259.8	25.6059
1263.17	15.9128
1266.55	21.7511
1269.92	1.14608
1273.3	7.32584
