Measurement: Raman, 785 nm, unoriented, Raman Data Processed
Mineral: Griphite
Rruff sample: R050618
Ideal chemistry: Ca(Mn^2+^,Na,Li)_6_Fe^2+^Al_2_(PO_4_)_6_(F,OH)_2_
Locality: Pennington County, South Dakota, USA
Source: University of Arizona Mineral Museum
Description: Dark brown massive
Measured chemistry: Ca_1.00_(Mn^2+^_3.76_Na_1.87_Ca_0.24_Li_0.13_)_Σ=6_(Fe^2+^_0.74_Mn^2+^_0.25_Mg_0.01_)_Σ=1_(Al_1.82_Fe^3+^_0.18_)_Σ=2_(P_1.00_O_4_)_6_F_2.00_ ; Li not measured but estimated by difference and charge balance.
Raman shift (cm-1)	intensity
239.91	0
242.803	253
245.696	526.891
248.588	176.547
251.481	150
254.374	85.0469
257.266	463.156
260.159	839.562
263.052	988.969
265.945	1122.56
268.837	1051.41
271.73	730.016
274.623	822.469
277.515	738.922
280.408	1140.55
283.301	1536.03
286.193	1722.12
289.086	1698.98
291.979	1695.03
294.872	1013.61
297.764	1072.11
300.657	1157.47
303.55	1220.69
306.442	1266.61
309.335	1914.39
312.228	1729.97
315.12	1206.11
318.013	1045.64
320.906	740.391
323.798	847.953
326.691	1051.33
329.584	1328.39
332.477	1748.47
335.369	1401.22
338.262	1014.91
341.155	658.891
344.047	378.688
346.94	685.109
349.833	698.953
352.726	1168.41
355.618	1044.11
358.511	917.609
361.404	815.781
364.296	293.797
367.189	81.4531
370.082	469.859
372.974	1097.53
375.867	710.906
378.76	1017.61
381.652	785.453
384.545	212.266
387.438	65.7969
390.331	178
393.223	299.375
396.116	657.953
399.009	683.109
401.901	750.031
404.794	727.812
407.687	188.125
410.579	24.7344
413.472	152.281
416.365	551.344
419.258	753.156
422.15	747.078
425.043	549.375
427.936	377.109
430.828	316.672
433.721	124.688
436.614	341.188
439.507	366.031
442.399	352.766
445.292	406.484
448.185	461.641
451.077	109.578
453.97	21.6875
456.863	282.984
459.755	154.469
462.648	28.375
465.541	159.609
468.433	416.641
471.326	721.125
474.219	305.484
477.112	343.219
480.004	43.9844
482.897	113.438
485.79	201.969
488.682	296.922
491.575	516.875
494.468	572.078
497.361	351.328
500.253	210.078
503.146	156.938
506.039	1.5
508.931	237.031
511.824	402.578
514.717	530.484
517.609	393.594
520.502	97.4531
523.395	41.3906
526.288	41.7969
529.18	85.1719
532.073	279.5
534.966	352.109
537.858	389.25
540.751	261.406
543.644	350.328
546.536	86.8281
549.429	73.8438
552.322	315.719
555.215	382.203
558.107	655.172
561	1033.78
563.893	572.859
566.785	499.688
569.678	847.188
572.571	457.656
575.463	594.406
578.356	727.531
581.249	915.734
584.141	1034.33
587.034	855.391
589.927	796.766
592.82	469.484
595.712	517.688
598.605	500.594
601.498	448.797
604.39	509.516
607.283	482.672
610.176	343.422
613.068	519.484
615.961	269.234
618.854	88.0469
621.747	449.312
624.639	433.734
627.532	480.844
630.425	718.047
633.317	666.453
636.21	486.117
639.103	476.539
641.995	51.7031
644.888	272.609
647.781	128.555
650.674	104.242
653.566	214.742
656.459	501.109
659.352	238.562
662.244	165.609
665.137	6.53906
668.03	95.9141
670.923	96.8359
673.815	6.57031
676.708	246.961
679.601	309.562
682.493	447.523
685.386	23.0391
688.279	191.125
691.171	39.4688
694.064	196
696.957	415.047
699.85	388.594
702.742	798.898
705.635	681.766
708.528	481.016
711.42	364.312
714.313	394.648
717.206	479.273
720.098	607.586
722.991	619.031
725.884	599.016
728.777	361.258
731.669	342.836
734.562	205.695
737.455	295.891
740.347	502.117
743.24	492.805
746.133	278.375
749.025	652.266
751.918	491.633
754.811	376.125
757.703	234.305
760.596	224.555
763.489	109.938
766.382	233.492
769.274	240.539
772.167	337.977
775.06	253.703
777.952	16.6328
780.845	262.328
783.738	98.3672
786.63	276
789.523	166.625
792.416	258.812
795.309	419.109
798.201	444.562
801.094	116.984
803.987	175.375
806.879	151.484
809.772	270.859
812.665	298.062
815.558	80.5625
818.45	360.359
821.343	445.414
824.236	204.789
827.128	290.531
830.021	307.469
832.914	10.6484
835.806	402.016
838.699	241.492
841.592	398.875
844.485	283.93
847.377	169.891
850.27	160.906
853.163	178.469
856.055	349.508
858.948	248.828
861.841	122.828
864.733	174.992
867.626	379.328
870.519	428.922
873.412	253.758
876.304	17.2188
879.197	379.125
882.09	128.156
884.982	178.789
887.875	403.648
890.768	161.234
893.66	7.15625
896.553	37.6719
899.446	94.9141
902.338	87.5547
905.231	8.875
908.124	394.547
911.017	262.188
913.909	229.117
916.802	187.602
919.695	144.203
922.587	133.039
925.48	296.195
928.373	30.2344
931.265	172.461
934.158	366.875
937.051	64.1797
939.944	162.68
942.836	257.594
945.729	458.969
948.622	179.711
951.514	290.438
954.407	504.688
957.3	595.695
960.192	810.273
963.085	846.43
965.978	1047
968.871	1158.77
971.763	1356.77
974.656	1441.69
977.549	1735.11
980.441	2143.77
983.334	2174.76
986.227	2463.48
989.12	1985.56
992.012	1681.61
994.905	1577.21
997.798	1210
1000.69	1303.52
1003.58	1209.04
1006.48	947.07
1009.37	548.484
1012.26	813.711
1015.15	566.047
1018.05	452.82
1020.94	288.789
1023.83	155.633
1026.72	89.2344
1029.62	138.406
1032.51	159.133
1035.4	18.7969
1038.3	271.719
1041.19	40.2578
1044.08	59.1406
1046.97	278.523
1049.87	166.344
1052.76	348.547
1055.65	207.898
1058.54	182.836
1061.44	166.32
1064.33	368.828
1067.22	29.2891
1070.12	310.086
1073.01	359.57
1075.9	175.188
1078.79	244.156
1081.69	242.797
1084.58	30.7734
1087.47	84.4219
1090.36	169.953
1093.26	270.461
1096.15	205.086
1099.04	1.125
1101.93	396.43
1104.83	375.562
1107.72	185.641
1110.61	140.141
1113.51	3.30469
1116.4	203.375
1119.29	72.8359
1122.18	481.07
1125.08	389.656
1127.97	207.656
1130.86	202.375
1133.76	400.641
1136.65	291.492
1139.54	76.5625
1142.43	333.281
1145.33	261.688
1148.22	106.133
1151.11	171.281
1154	354.414
1156.9	169.055
1159.79	87.4297
1162.68	262.211
1165.57	148.938
1168.47	234.391
1171.36	312.438
1174.25	30.7734
1177.14	414.398
1180.04	305.492
1182.93	12.9844
1185.82	300.492
1188.72	277.078
1191.61	231.789
1194.5	289.164
1197.39	394.758
1200.29	197.031
1203.18	18.7109
1206.07	295.43
1208.96	318.633
1211.86	415.805
1214.75	276.453
1217.64	101.781
1220.54	584.031
1223.43	318.414
1226.32	353.414
1229.21	404.148
1232.11	273.492
1235	303.055
1237.89	154.008
1240.78	200.023
1243.68	0
