Measurement: Raman, 785 nm, unoriented, Raman Data Processed
Mineral: Grossular
Rruff sample: R060382
Ideal chemistry: Ca_3_Al_2_(SiO_4_)_3_
Locality: Lalatema, near Mount Kilimanjaro, Tanzania
Source: Herb Obodda
Description: Pale tan colored fragment
Measured chemistry: (Ca_2.95_Mg_0.03_Mn_0.02_)_Σ=3_Al_2.00_((Si_0.99_Ti_0.01_)_Σ=1_O_4_)_3_; trace amounts of Fe
Raman shift (cm-1)	intensity
90.672	82.628
93.565	73.712
96.457	83.898
99.35	75.225
102.243	77.632
105.135	81.807
108.028	75.556
110.921	86.908
113.813	89.178
116.706	96.839
119.599	102.393
122.492	112.466
125.384	152.719
128.277	225.055
131.17	303.431
134.062	371.082
136.955	358.523
139.848	350.351
142.74	403.972
145.633	516.161
148.526	674.562
151.419	827.57
154.311	920.438
157.204	1036.12
160.097	1240.29
162.989	1568.77
165.882	1819.8
168.775	1851
171.667	1509.22
174.56	1251.51
177.453	1158.77
180.346	1311.94
183.238	1148.04
186.131	1003.79
189.024	999.163
191.916	1025.52
194.809	1056.34
197.702	1091.43
200.594	1082.92
203.487	1124.6
206.38	1158.22
209.273	1223.7
212.165	1316.75
215.058	1391.29
217.951	1491.82
220.843	1680.8
223.736	1846.14
226.629	2047.87
229.521	2316.12
232.414	2558.2
235.307	2759.45
238.2	2890.49
241.092	2946.53
243.985	2934.86
246.878	3110.95
249.77	3230.59
252.663	3469.53
255.556	3868.99
258.448	4427.81
261.341	4964.27
264.234	5013.64
267.127	4307.24
270.019	3501.29
272.912	2952.54
275.805	2713.96
278.697	2590.24
281.59	2354.13
284.483	2251.5
287.375	2259.24
290.268	2333.51
293.161	2526.46
296.054	2745.24
298.946	3002.64
301.839	3272.45
304.732	3479.01
307.624	3762.11
310.517	4024.24
313.41	4444.17
316.302	4982.84
319.195	5518.09
322.088	6087.83
324.981	6727.36
327.873	7587.47
330.766	8506.55
333.659	9686.54
336.551	11239
339.444	13259
342.337	15919.2
345.23	18962.5
348.122	21527.2
351.015	22063.7
353.908	19372.7
356.8	14530
359.693	10494.9
362.586	7927.23
365.478	6553.37
368.371	6050.81
371.264	5568.86
374.157	5398.73
377.049	4615.67
379.942	3603.56
382.835	3119.58
385.727	2961.3
388.62	2927.13
391.513	2965.24
394.405	3212.18
397.298	3528.2
400.191	3872.36
403.084	4213.9
405.976	4372.54
408.869	4584.85
411.762	4819.14
414.654	5166.87
417.547	5445.83
420.44	5205.68
423.332	5041.42
426.225	5014.82
429.118	5315.12
432.011	5658.35
434.903	6092.4
437.796	6174.09
440.689	5993.6
443.581	5652.37
446.474	5326.82
449.367	4994.05
452.259	4593.66
455.152	4283.1
458.045	3955.96
460.938	3824.53
463.83	3728.88
466.723	3664.74
469.616	3616.35
472.508	3581.1
475.401	3545.18
478.294	3649.57
481.186	3670.33
484.079	3821.2
486.972	4080.01
489.865	4341.67
492.757	4800.39
495.65	5242.66
498.543	5619.18
501.435	6054.6
504.328	6301.06
507.221	6795.23
510.113	7557.69
513.006	8364.16
515.899	9320.7
518.792	10172.4
521.684	10984.5
524.577	11397.5
527.47	11133.1
530.362	9998.91
533.255	8495.66
536.148	6999.48
539.041	5877.65
541.933	5058.6
544.826	4512.1
547.719	4319.33
550.611	3943.78
553.504	3485.77
556.397	3283.42
559.289	3122.52
562.182	3107.3
565.075	3128.77
567.968	3156.06
570.86	3215.1
573.753	3390.97
576.646	3530.29
579.538	3678.95
582.431	3734.31
585.324	3688.4
588.216	3539.15
591.109	3436.88
594.002	3411.28
596.894	3498.51
599.787	3629.09
602.68	3771.87
605.573	3627.05
608.465	3304.68
611.358	2887.33
614.251	2471.86
617.143	2172.28
620.036	1929.29
622.929	1780.85
625.821	1670.69
628.714	1611.01
631.607	1511.07
634.5	1397.87
637.392	1357.04
640.285	1306.01
643.178	1231.27
646.07	1213.38
648.963	1157.57
651.856	1126.54
654.748	1107.56
657.641	1103.85
660.534	1076.33
663.427	1066.5
666.319	1061.23
669.212	1054.74
672.105	1048.64
674.997	1089.6
677.89	1089.29
680.783	1123.11
683.675	1119.64
686.568	1161.95
689.461	1198.79
692.354	1212.06
695.246	1263.72
698.139	1304.87
701.032	1347.64
703.924	1398.85
706.817	1388.26
709.71	1423.74
712.602	1472.96
715.495	1439.07
718.388	1430.87
721.281	1407.78
724.173	1399.1
727.066	1352.03
729.959	1328.36
732.851	1274.65
735.744	1250.48
738.637	1264.22
741.529	1269.81
744.422	1259.23
747.315	1277.42
750.208	1330.91
753.1	1358.51
755.993	1361.45
758.886	1411.94
761.778	1419.26
764.671	1473
767.564	1501.18
770.456	1530.83
773.349	1603.9
776.242	1629.57
779.135	1631.39
782.027	1643.68
784.92	1646.84
787.813	1639.26
790.705	1648.1
793.598	1619.64
796.491	1625.83
799.383	1580.67
802.276	1543.98
805.169	1538.97
808.062	1521.12
810.954	1570.1
813.847	1524.34
816.74	1566.05
819.632	1612.22
822.525	1614.99
825.418	1579.03
828.31	1525.96
831.203	1398.71
834.096	1340.93
836.989	1312.51
839.881	1289.32
842.774	1276.39
845.667	1296.79
848.559	1334.37
851.452	1301.06
854.345	1294.2
857.237	1296.85
860.13	1330.47
863.023	1392.57
865.916	1504.7
868.808	1671.17
871.701	1986.59
874.594	2461.98
877.487	2993.64
880.379	3152.35
883.272	2750.11
886.165	2191.93
889.057	1841.88
891.95	1662.78
894.843	1541.63
897.735	1491.34
900.628	1419.61
903.521	1390
906.414	1432.79
909.306	1429.47
912.199	1411.5
915.092	1447.15
917.984	1489.81
920.877	1476.16
923.77	1484.69
926.662	1502.9
929.555	1539.49
932.448	1567
935.341	1596.44
938.233	1632.41
941.126	1647.17
944.019	1735.38
946.911	1770.07
949.804	1852.54
952.697	1959.76
955.589	2135.73
958.482	2262.64
961.375	2362.83
964.268	2382.02
967.16	2535.09
970.053	2658.5
972.946	3105.86
975.838	3428.44
978.731	3322.83
981.624	3289.96
984.516	3172.33
987.409	3075.14
990.302	2987.21
993.195	3024.39
996.087	3066.33
998.98	3178.49
1001.87	3140.62
1004.76	3002.02
1007.66	2843.55
1010.55	2665.45
1013.44	2533.92
1016.34	2448.41
1019.23	2425.12
1022.12	2392.7
1025.01	2406.85
1027.91	2475.68
1030.8	2539.09
1033.69	2625.14
1036.59	2708.35
1039.48	2794.4
1042.37	2920.96
1045.26	3017.39
1048.16	3170.81
1051.05	3304.79
1053.94	3502.7
1056.83	3727.24
1059.73	4024.04
1062.62	4329.75
1065.51	4691.35
1068.4	5040.74
1071.3	5543.86
1074.19	5977.16
