Measurement: Raman, 780 nm, unoriented, Raman Data Processed
Mineral: Grossular
Rruff sample: R100161
Ideal chemistry: Ca_3_Al_2_(SiO_4_)_3_
Locality: Kenya
Source: William W. Pinch
Description: Green gemmy fragments
Raman shift (cm-1)	intensity
136.406	0
139.299	4.32965
142.192	13.0136
145.085	36.4547
147.977	49.8966
150.87	84.8622
153.763	111.99
156.655	123.478
159.548	118.981
162.441	104.932
165.333	75.8206
168.226	50.3362
171.119	30.3206
174.012	27.449
176.904	66.4942
179.797	192.026
182.69	168.89
185.582	65.4852
188.475	23.9785
191.368	6.80499
194.261	2.98462
197.153	0.348022
200.046	2.0376
202.939	1.48535
205.831	0.782043
208.724	3.00165
211.617	3.64105
214.509	0.394836
217.402	0.517456
220.295	0.64386
223.188	7.23486
226.08	12.0623
228.973	35.1205
231.866	63.5054
234.758	111.387
237.651	161.19
240.544	175.313
243.436	177.046
246.329	198.403
249.222	113.963
252.114	47.093
255.007	18.0622
257.9	10.4627
260.793	7.67767
263.685	3.81171
266.578	3.98004
269.471	16.2186
272.363	40.0714
275.256	98.4439
278.149	114.592
281.041	41.373
283.934	0.748535
286.827	11.7102
289.719	13.3673
292.612	15.1431
295.505	8.73126
298.398	0.371338
301.29	18.2839
304.183	30.1677
307.076	47.0913
309.968	52.7552
312.861	59.1401
315.754	60.3873
318.647	63.9642
321.539	66.7736
324.432	83.929
327.325	112.3
330.217	137.522
333.11	157.469
336.003	174.551
338.895	160.402
341.788	119.488
344.681	82.8507
347.574	60.351
350.466	42.5673
353.359	58.6203
356.252	116.352
359.144	212.212
362.037	374.675
364.93	644.286
367.822	934.833
370.715	1170.72
373.608	1434.81
376.5	1179.48
379.393	607.034
382.286	313.306
385.179	195.647
388.071	150.703
390.964	142.205
393.857	168.726
396.749	208.566
399.642	269.113
402.535	344.388
405.427	444.945
408.32	574.644
411.213	757.9
414.106	973.086
416.998	1070.71
419.891	1127.53
422.784	1175.43
425.676	1144.19
428.569	933.454
431.462	652.58
434.354	412.8
437.247	255.539
440.14	152.412
443.033	90.9965
445.925	46.1613
448.818	27.8393
451.711	3.849
454.603	8.69665
457.496	16.6658
460.389	20.4804
463.281	18.3288
466.174	2.95013
469.067	16.5515
471.959	48.7645
474.852	81.2966
477.745	107.88
480.638	122.077
483.53	127.681
486.423	139.29
489.316	148.595
492.208	154.885
495.101	161.302
497.994	162.014
500.887	176.095
503.779	211.191
506.672	252.203
509.565	271.505
512.457	235.769
515.35	187.181
518.243	133.281
521.135	100.582
524.028	72.358
526.921	45.3625
529.813	11.1771
532.706	9.23199
535.599	7.73059
538.492	17.9648
541.384	77.6825
544.277	216.97
547.17	355.255
550.062	230.324
552.955	67.9846
555.848	7.47302
558.74	2.78186
561.633	3.49451
564.526	19.9544
567.418	49.0857
570.311	71.5576
573.204	97.3959
576.097	123.455
578.989	142.541
581.882	181.912
584.775	225.512
587.667	287.228
590.56	339.361
593.453	375.572
596.346	394.142
599.238	385.071
602.131	353.229
605.024	287.968
607.916	209.876
610.809	142.948
613.702	89.4303
616.594	49.7598
619.487	32.4544
622.38	26.0797
625.273	30.7278
628.165	48.7803
631.058	39.4255
633.951	30.3729
636.843	15.3148
639.736	12.5479
642.629	14.1712
645.521	21.1445
648.414	31.4373
651.307	42.5602
654.199	58.5325
657.092	61.6859
659.985	68.9633
662.878	77.6325
665.77	66.9972
668.663	79.5831
671.556	87.4244
674.448	104.047
677.341	112.554
680.234	110.95
683.126	97.1058
686.019	77.525
688.912	53.4228
691.805	37.4313
694.697	20.1453
697.59	11.4824
700.483	2.36279
703.375	1.80689
706.268	0.022034
709.161	1.427
712.053	3.11322
714.946	0.669006
717.839	0.609985
720.731	1.11456
723.624	1.81433
726.517	3.948
729.41	3.54456
732.302	1.85193
735.195	8.56988
738.088	3.68433
740.98	5.69556
743.873	0.63208
746.766	1.3681
749.659	1.33978
752.551	3.82446
755.444	6.6601
758.337	9.44611
761.229	12.9367
764.122	11.9029
767.015	13.6384
769.907	15.1168
772.8	24.0115
775.693	27.8151
778.586	26.7435
781.478	23.9136
784.371	27.8151
787.264	23.3025
790.156	18.4528
793.049	13.5412
795.942	13.3548
798.834	21.0557
801.727	20.9441
804.62	40.1136
807.513	55.9477
810.405	76.0719
813.298	102.285
816.191	141.665
819.083	192.362
821.976	250.367
824.869	262.342
827.761	220.886
830.654	159.901
833.547	123.026
836.439	98.6738
839.332	91.7582
842.225	90.2968
845.118	101.39
848.01	110.291
850.903	108.12
853.796	110.327
856.688	115.508
859.581	147.637
862.474	192.67
865.366	270.383
868.259	394.115
871.152	583.448
874.044	883.242
876.937	1269.94
879.83	1525.73
882.723	1394.12
885.615	1008.72
888.508	648.178
891.401	407.56
894.293	252.5
897.186	157.993
900.079	108.763
902.971	75.8027
905.864	61.2343
908.757	50.1222
911.65	41.6275
914.542	31.2845
917.435	22.2293
920.328	14.067
923.22	10.2095
926.113	1.0116
929.006	1.86035
931.899	5.96033
934.791	8.99927
937.684	7.77924
940.577	2.6294
943.469	3.59155
946.362	7.56403
949.255	0.960999
952.147	1.75928
955.04	1.18048
957.933	1.73236
960.825	0.801331
963.718	2.2757
966.611	1.7149
969.504	6.41577
972.396	13.5414
975.289	17.7182
978.182	23.0814
981.074	31.4415
983.967	35.5497
986.86	35.1879
989.752	41.3411
992.645	43.9052
995.538	49.2902
998.431	55.5201
1001.32	66.17
1004.22	79.5698
1007.11	93.0322
1010	83.5602
1012.89	64.2558
1015.79	45.7386
1018.68	34.1166
1021.57	31.7916
1024.46	32.7685
1027.36	33.4496
1030.25	43.5978
1033.14	46.9047
1036.04	52.8448
1038.93	57.1705
1041.82	62.6553
1044.71	73.7743
1047.61	81.5215
1050.5	88.4946
1053.39	89.8066
1056.29	88.0481
1059.18	73.7493
1062.07	62.0525
1064.96	64.4034
1067.86	63.8134
1070.75	63.6605
1073.64	61.3769
1076.53	51.6755
1079.43	40.7627
1082.32	29.8145
1085.21	19.8481
1088.1	11.1936
1091	10.1101
1093.89	0.891296
1096.78	4.42114
1099.67	0.685608
1102.57	0.138428
1105.46	0.846741
1108.35	0.13385
