Measurement: Raman, 532 nm, unoriented, Raman Data Processed
Mineral: Grossular
Rruff sample: R060382
Ideal chemistry: Ca_3_Al_2_(SiO_4_)_3_
Locality: Lalatema, near Mount Kilimanjaro, Tanzania
Source: Herb Obodda
Description: Pale tan colored fragment
Measured chemistry: (Ca_2.95_Mg_0.03_Mn_0.02_)_Σ=3_Al_2.00_((Si_0.99_Ti_0.01_)_Σ=1_O_4_)_3_; trace amounts of Fe
Raman shift (cm-1)	intensity
137.609	0
140.984	39.7514
144.358	1.2464
147.733	28.7183
151.108	92.4886
154.483	180.039
157.858	154.935
161.233	115.261
164.607	111.681
167.982	113.778
171.357	121.468
174.732	135.978
178.107	167.342
181.482	234.605
184.856	127.698
188.231	88.6797
191.606	56.9767
194.981	88.1931
198.356	83.6947
201.731	95.9443
205.105	85.6892
208.48	63.0429
211.855	31.7399
215.23	8.58118
218.605	15.0703
221.979	5.77661
225.354	16.9618
228.729	4.61536
232.104	40.9474
235.479	92.0147
238.853	169.608
242.228	178.458
245.603	308.925
248.978	424.7
252.353	397.069
255.727	424.022
259.102	352.184
262.477	141.615
265.852	92.4348
269.227	60.2971
272.602	93.5901
275.976	203.918
279.351	266.978
282.726	82.0564
286.101	22.3271
289.476	42.8313
292.851	31.5393
296.225	37.4753
299.6	36.9956
302.975	12.081
306.35	12.1609
309.725	1.78394
313.099	5.29712
316.474	17.3342
319.849	34.1787
323.224	34.9922
326.599	14.5322
329.974	73.8811
333.348	70.0122
336.723	29.051
340.098	12.4409
343.473	22.9138
346.848	14.6445
350.223	67.3379
353.597	51.3044
356.972	75.6619
360.347	154.046
363.722	279.688
367.097	541.238
370.471	839.645
373.846	1000.25
377.221	875.125
380.596	365.246
383.971	167.703
387.346	81.4199
390.72	15.1736
394.095	10.231
397.47	37.1589
400.845	49.9009
404.219	44.6497
407.594	93.9346
410.969	109.588
414.344	185.675
417.719	287.111
421.094	135.329
424.469	75.3857
427.843	57.1821
431.218	28.9888
434.593	76.5478
437.968	31.1025
441.343	20.4399
444.717	41.0669
448.092	53.3716
451.467	11.1553
454.842	1.24951
458.217	20.876
461.591	7.02979
464.966	6.22168
468.341	16.7363
471.716	42.5127
475.091	32.2563
478.466	63.46
481.84	63.8872
485.215	0.272461
488.59	24.6909
491.965	92.0903
495.34	91.0337
498.714	127.343
502.089	160.877
505.464	260.927
508.839	243.033
512.214	251.809
515.589	179.422
518.963	141.026
522.338	99.3633
525.713	162.997
529.088	144.455
532.463	96.0454
535.837	98.8267
539.212	92.9253
542.587	152.983
545.962	223.911
549.337	317.328
552.712	132.269
556.086	56.2549
559.461	49.7651
562.836	51.1763
566.211	16.541
569.586	38.8438
572.96	36.0933
576.335	12.4282
579.71	23.1128
583.085	12.7607
586.46	14.9077
589.835	24.9453
593.209	2.37353
596.584	10.0635
599.959	68.8169
603.334	10.0293
606.709	10.0483
610.083	48.8115
613.458	55.6904
616.833	36.2559
620.208	75.3262
623.583	108.061
626.958	210.814
630.332	248.605
633.707	203.26
637.082	209.12
640.457	112.799
643.832	90.4375
647.207	22.6729
650.581	43.125
653.956	7.19043
657.331	40.3359
660.706	54.9004
664.081	30.332
667.455	40.4902
670.83	3.36328
674.205	6.81348
677.58	88.4492
680.955	1.2207
684.33	108.959
687.704	70.9082
691.079	82.3223
694.454	136.996
697.829	134.865
701.204	98.5938
704.578	144.055
707.953	190.702
711.328	125.508
714.703	55.793
718.078	123.024
721.452	65.4766
724.827	66.3506
728.202	64.6602
731.577	9.75586
734.952	5.55371
738.327	28.0928
741.701	17.4053
745.076	41.6162
748.451	30.626
751.826	40.4834
755.201	58.3184
758.576	0.354492
761.95	48.6191
765.325	123.793
768.7	78.9834
772.075	32.6973
775.45	110.93
778.824	141.042
782.199	26.5732
785.574	47.417
788.949	41.7334
792.324	32.0645
795.698	52.5449
799.073	52.166
802.448	58.7578
805.823	91.8652
809.198	196.102
812.573	387.332
815.947	403.076
819.322	465.315
822.697	712.754
826.072	728.439
829.447	567.867
832.822	431.162
836.196	334.519
839.571	247.582
842.946	147.775
846.321	143.133
849.696	223.367
853.07	145.185
856.445	139.965
859.82	73.709
863.195	172.193
866.57	263.492
869.944	320.318
873.319	645.894
876.694	1142.96
880.069	1324.93
883.444	835.9
886.819	655.158
890.193	289.92
893.568	42.0801
896.943	14.9121
900.318	99.0996
903.693	23.0957
907.067	67.0254
910.442	86.5371
913.817	174.498
917.192	110.203
920.567	102.471
923.942	172.279
927.316	77.9961
930.691	160.787
934.066	76.8066
937.441	135.055
940.816	72.0293
944.191	177.135
947.565	109.805
950.94	12.4531
954.315	24.291
957.69	101.769
961.065	33.7793
964.439	69.2852
967.814	79.418
971.189	95.3047
974.564	99.0547
977.939	57.4473
981.313	138.412
984.688	139.623
988.063	115.816
991.438	179.728
994.813	172.418
998.188	243.324
1001.56	183.371
1004.94	254.576
1008.31	347.435
1011.69	196.941
1015.06	145.197
1018.44	13.209
1021.81	27.4863
1025.19	115.193
1028.56	150.846
1031.94	106.508
1035.31	126.43
1038.68	116.945
1042.06	109.125
1045.43	185.971
1048.81	232.719
1052.18	192.144
1055.56	236.557
1058.93	194.885
1062.31	217.506
1065.68	271.922
1069.06	137.389
1072.43	191.441
1075.81	121.019
1079.18	158.783
1082.56	124.098
1085.93	13.5605
1089.31	97.6445
1092.68	157.43
1096.06	81.1797
1099.43	71.1953
1102.81	0.867188
1106.18	169.438
1109.56	0.5625
1112.93	125.742
1116.31	11.9453
1119.68	13.2891
1123.06	180.18
1126.43	178.477
1129.81	81.7109
1133.18	89.7109
1136.56	127.43
1139.93	76.1484
1143.31	255.531
1146.68	180.644
1150.05	230.336
1153.43	199.027
1156.8	270.824
1160.18	159.832
1163.55	40.6445
1166.93	10.6641
1170.3	144.293
1173.68	284.711
1177.05	198.394
1180.43	12.8516
1183.8	119.902
1187.18	184.766
1190.55	183.027
1193.93	254.898
1197.3	75.1602
1200.68	56.9453
1204.05	310.078
1207.43	184.473
1210.8	87.4805
1214.18	15.3672
1217.55	132.273
1220.93	270.914
1224.3	101.918
1227.67	31.0977
1231.05	112.555
1234.42	300.356
1237.8	221.488
1241.17	244.176
1244.55	103.711
1247.92	207.078
1251.3	204.375
1254.67	201.938
1258.05	98.9102
1261.42	315.594
1264.8	181.035
1268.17	87.793
1271.55	206.965
1274.92	80.4219
1278.3	293.426
1281.67	313.863
1285.05	170.551
1288.42	170.406
1291.8	27.1094
1295.17	120.176
1298.55	260.266
1301.92	412.988
1305.3	52.0664
1308.67	227.32
1312.05	156.633
1315.42	5.11328
