Measurement: Raman, 780 nm, unoriented, Raman Data Processed
Mineral: Gustavite
Rruff sample: R100202
Ideal chemistry: Ag^1+^Pb^2+^Bi^3+^_3_S^2-^_6_
Locality: Level 390, Vein 14, Mina Herminia, Julcani District, Huancavelica, Peru
Source: William W Pinch
Description: Elongated black metallic crystals frozen in white granular quartz and barite mixture
Measured chemistry: Ag_1.03_Pb_0.91_Bi_1.72_Sb_1.32_(S_5.96_As_0.04_)_Î£=6.00_
Raman shift (cm-1)	intensity
172.083	0
174.976	0.020283
177.869	0.607819
180.761	0.912357
183.654	1.7662
186.547	0.958973
189.439	0.132446
192.332	0.079758
195.225	1.25434
198.117	1.84122
201.01	1.55387
203.903	0.591614
206.796	2.59624
209.688	3.63955
212.581	5.0712
215.474	6.11903
218.366	6.75338
221.259	5.22509
224.152	5.35686
227.044	5.22936
229.937	5.6552
232.83	2.9527
235.722	3.3868
238.615	2.09083
241.508	4.5199
244.401	4.10199
247.293	5.03524
250.186	2.81999
253.079	1.91129
255.971	1.31689
258.864	1.21551
261.757	1.49605
264.649	0.604389
267.542	3.45498
270.435	0.69138
273.328	1.21766
276.22	1.44983
279.113	1.74424
282.006	0.032785
284.898	1.73543
287.791	1.54871
290.684	0.639637
293.576	0.366474
296.469	2.60653
299.362	1.42696
302.255	3.93114
305.147	4.04899
308.04	2.84143
310.933	3.10632
313.825	2.56348
316.718	1.8502
319.611	1.97671
322.503	3.89666
325.396	0.031387
328.289	3.19475
331.182	2.30549
334.074	1.53655
336.967	0.288094
339.86	4.5758
342.752	2.72202
345.645	2.11555
348.538	0.452181
351.43	2.4432
354.323	2.52812
357.216	2.36458
360.108	4.43826
363.001	1.93739
365.894	1.84235
368.787	2.16349
371.679	0.636408
374.572	2.18891
377.465	2.18588
380.357	0.672644
383.25	2.38018
386.143	0.809549
389.036	2.53257
391.928	1.98552
394.821	0.403292
397.714	0.428101
400.606	1.60381
403.499	1.24086
406.392	1.44815
409.284	1.83531
412.177	1.7393
415.07	0.930424
417.962	1.71297
420.855	1.6764
423.748	0.510221
426.641	1.45973
429.533	0.597748
432.426	2.29651
435.319	0.751944
438.211	2.40499
441.104	2.51978
443.997	1.66664
446.889	1.94454
449.782	0.52894
452.675	1.67613
455.567	0.725521
458.46	1.88356
461.353	0.023008
464.246	1.44943
467.138	0.001152
470.031	1.25306
472.924	3.18819
475.816	1.78314
478.709	1.63907
481.602	0.782282
484.495	1.57429
487.387	3.04682
490.28	0.851276
493.173	1.54583
496.065	0.787165
498.958	1.75244
501.851	1.71722
504.743	2.18177
507.636	2.50492
510.529	1.24264
513.422	0.599979
516.314	0.235634
519.207	0.543985
522.1	1.58547
524.992	2.7349
527.885	1.85604
530.778	1.00262
533.67	2.36869
536.563	1.42848
539.456	0.854246
542.348	1.91493
545.241	3.04046
548.134	0.588747
551.027	1.64577
553.919	1.43816
556.812	2.67912
559.705	1.01227
562.597	1.05072
565.49	0.810753
568.383	2.36439
571.275	1.96217
574.168	2.07825
577.061	1.25345
579.954	1.1408
582.846	0.39794
585.739	0.108259
588.632	1.54484
591.524	1.37874
594.417	1.35681
597.31	1.09289
600.202	0.993481
603.095	2.7527
605.988	0.749557
608.881	0.892092
611.773	1.83288
614.666	2.69472
617.559	0.026056
620.451	0.770653
623.344	0.546125
626.237	0.406363
629.129	0.602463
632.022	0.698868
634.915	2.08076
637.808	1.44904
640.7	1.09127
643.593	1.69923
646.486	3.43871
649.378	1.65154
652.271	2.39335
655.164	1.19737
658.056	2.71106
660.949	3.09429
663.842	2.33537
666.735	2.21635
669.627	1.94818
672.52	2.27559
675.413	2.78666
678.305	2.45927
681.198	0.698109
684.091	1.11922
686.983	1.10703
689.876	1.04554
692.769	0.910995
695.662	0.522507
698.554	1.20877
701.447	0.885992
704.34	1.47077
707.232	1.50509
710.125	1.26781
713.018	0.519581
715.91	0.669596
718.803	1.92908
721.696	1.75893
724.588	1.86324
727.481	2.72504
730.374	3.15909
733.266	0.607321
736.159	3.21843
739.052	0.099997
741.945	0.119423
744.837	1.75185
747.73	0.747581
750.623	0.703152
753.515	3.31575
756.408	1.58005
759.301	1.69199
762.193	2.02608
765.086	2.34122
767.979	0.813511
770.872	0.487057
773.764	0.683617
776.657	2.85499
779.55	0.932728
782.442	1.20931
785.335	0.124702
788.228	2.31133
791.12	2.16309
794.013	0.110983
796.906	3.09125
799.799	0.774658
802.691	3.13411
805.584	2.35671
808.477	2.29921
811.369	2.11895
814.262	2.70452
817.155	0.566814
820.048	2.72188
822.94	1.54825
825.833	1.97167
828.726	2.81114
831.618	0.76091
834.511	1.29583
837.404	3.23847
840.296	4.40129
843.189	1.39717
846.082	3.12422
848.975	2.21116
851.867	1.21013
854.76	4.00079
857.653	2.81099
860.545	3.86265
863.438	2.87848
866.331	2.39068
869.223	4.57218
872.116	3.27974
875.009	2.25824
877.901	3.4563
880.794	2.27728
883.687	3.91377
886.58	2.53105
889.472	1.79527
892.365	1.42537
895.258	2.16818
898.15	0.261459
901.043	1.52447
903.936	2.56763
906.828	1.65885
909.721	1.1941
912.614	2.20819
915.506	1.57878
918.399	1.74442
921.292	3.64137
924.185	1.03188
927.077	0.040113
929.97	2.35938
932.863	1.64561
935.755	1.45071
938.648	2.18863
941.541	1.23953
944.433	1.3286
947.326	2.3877
950.219	0.884819
953.112	1.66515
956.004	2.82374
958.897	1.47135
961.79	0.91221
964.682	1.52916
967.575	2.02378
970.468	3.19467
973.361	3.19074
976.253	2.99099
979.146	1.97001
982.039	1.28313
984.931	2.19359
987.824	1.76465
990.717	3.31994
993.609	0.139345
996.502	0.289303
999.395	0.477161
1002.29	0.821222
1005.18	2.45883
1008.07	2.53582
1010.97	3.05708
1013.86	0.525934
1016.75	1.61071
1019.64	2.37236
1022.54	1.54225
1025.43	2.22199
1028.32	2.06214
1031.21	1.38478
1034.11	2.46271
1037	2.93319
1039.89	2.48174
1042.79	2.67965
1045.68	2.22877
1048.57	2.21946
1051.46	2.30751
1054.36	0.379765
1057.25	3.33449
1060.14	0.09284
1063.03	2.7944
1065.93	1.51373
1068.82	2.33336
1071.71	1.83426
1074.61	0.165112
1077.5	1.02877
1080.39	1.7472
1083.28	1.57553
1086.18	1.7511
1089.07	0.597309
1091.96	2.11551
1094.85	0.488163
1097.75	0.672615
1100.64	1.4758
1103.53	2.05673
1106.42	0.800198
1109.32	1.70801
1112.21	0.572578
1115.1	1.31436
1117.99	1.79862
1120.89	1.63985
1123.78	2.85757
1126.67	0.219599
1129.57	1.35004
1132.46	1.08042
1135.35	3.32691
1138.24	3.07321
1141.14	2.99786
1144.03	1.20606
1146.92	3.09028
1149.82	2.15398
1152.71	0.838375
1155.6	1.44126
1158.49	1.02266
1161.39	3.30816
1164.28	1.60023
1167.17	4.07137
1170.06	0.905296
1172.96	2.01069
1175.85	1.12447
1178.74	2.54025
1181.63	2.04572
1184.53	2.39675
1187.42	3.72653
1190.31	2.98695
1193.21	0.907108
1196.1	3.10852
1198.99	2.80082
1201.88	2.27883
1204.78	0.289686
1207.67	2.69761
1210.56	2.04241
1213.45	2.33059
1216.35	1.59358
1219.24	2.08207
1222.13	3.49341
1225.03	1.63312
1227.92	3.88663
1230.81	0.816549
1233.7	1.17941
1236.6	2.19043
1239.49	0.13574
1242.38	3.1265
1245.27	0.69837
1248.17	2.18532
1251.06	2.66046
1253.95	0.812485
1256.85	1.81567
1259.74	0.758444
1262.63	0.521738
1265.52	1.27065
1268.42	4.15631
1271.31	1.44878
1274.2	0.40382
1277.09	2.55732
1279.99	0.145443
1282.88	1.38217
