Measurement: Raman, 532 nm, unoriented, Raman Data Processed
Mineral: Gustavite
Rruff sample: R100203
Ideal chemistry: Ag^1+^Pb^2+^Bi^3+^_3_S^2-^_6_
Locality: Level 390, Vein 14, Mina Herminia, Julcani District, Huancavelica, Peru
Source: William W Pinch
Description: Elongated black metallic crystals with striations, on a matrix of tetrahedrite, R100204.
Measured chemistry: Ag_1.02_Pb_0.96_Bi_1.86_Sb_1.17_(S_5.97_As_0.03_)_Î£=6.00_
Raman shift (cm-1)	intensity
169.62	0
172.513	6.00751
175.406	1.41933
178.298	5.15184
181.191	2.61507
184.084	7.53099
186.976	10.124
189.869	8.44911
192.762	11.2779
195.655	10.7611
198.547	12.2426
201.44	12.8567
204.333	15.6642
207.225	13.5743
210.118	16.9191
213.011	16.1082
215.904	15.5614
218.796	16.2188
221.689	16.1195
224.582	16.1825
227.474	16.8097
230.367	17.1884
233.26	16.516
236.152	14.1069
239.045	16.7478
241.938	13.6859
244.831	14.6345
247.723	11.2668
250.616	14.196
253.509	14.3606
256.401	13.2137
259.294	13.2889
262.187	13.7013
265.079	14.658
267.972	17.1195
270.865	16.1975
273.758	19.217
276.65	17.3183
279.543	18.7427
282.436	17.6353
285.328	18.7139
288.221	15.3052
291.114	11.9151
294.007	11.7365
296.899	9.26926
299.792	8.83437
302.685	9.50931
305.577	8.11523
308.47	5.82456
311.363	5.73656
314.255	1.77615
317.148	0.897263
320.041	0.184509
322.933	0.938026
325.826	0.229698
328.719	1.57933
331.612	0.912003
334.504	0.973663
337.397	1.24849
340.29	0.293167
343.183	1.33118
346.075	0.193855
348.968	0.017776
351.861	2.64464
354.753	1.57217
357.646	1.30703
360.539	2.94379
363.431	1.11545
366.324	4.23988
369.217	2.18734
372.11	3.19447
375.002	2.1274
377.895	3.95868
380.788	3.12601
383.68	4.03814
386.573	2.68424
389.466	2.5043
392.358	1.86874
395.251	2.91562
398.144	0.05014
401.036	4.25676
403.929	2.97008
406.822	3.17416
409.715	2.13442
412.607	2.23229
415.5	0.991982
418.393	0.990288
421.285	1.80178
424.178	2.09992
427.071	1.15621
429.964	1.74145
432.856	1.74223
435.749	3.32488
438.642	2.50972
441.534	1.91209
444.427	2.02921
447.32	2.21705
450.212	2.3377
453.105	2.355
455.998	1.75096
458.891	0.926041
461.783	1.47503
464.676	1.25333
467.569	1.68719
470.461	1.70415
473.354	1.76841
476.247	0.862312
479.139	4.16213
482.032	0.930946
484.925	2.71991
487.818	2.49871
490.71	1.03065
493.603	4.45486
496.496	1.73077
499.388	2.04534
502.281	2.88569
505.174	1.43201
508.067	1.71976
510.959	1.79229
513.852	1.18398
516.745	0.387939
519.637	2.86799
522.53	0.241837
525.423	2.02527
528.316	3.13097
531.208	0.043159
534.101	0.554886
536.994	1.8625
539.886	2.1577
542.779	1.74696
545.672	1.20753
548.564	2.97762
551.457	1.41399
554.35	3.80553
557.242	3.17927
560.135	1.77618
563.028	1.1489
565.921	2.07586
568.813	1.57224
571.706	0.595711
574.599	1.47784
577.491	1.77504
580.384	1.54963
583.277	1.5282
586.17	1.30237
589.062	2.58281
591.955	2.62585
594.848	1.51395
597.74	1.2273
600.633	0.322281
603.526	0.484062
606.418	2.03404
609.311	0.705063
612.204	1.8033
615.097	0.304413
617.989	1.82427
620.882	2.3912
623.775	2.34297
626.667	2.28017
629.56	1.96587
632.453	2.59873
635.346	0.907707
638.238	1.6635
641.131	2.27949
644.024	2.63431
646.916	2.23579
649.809	0.502815
652.702	1.5642
655.594	0.376953
658.487	1.71339
661.38	2.34241
664.273	1.25431
667.165	3.11929
670.058	1.17573
672.951	0.067001
675.843	0.996185
678.736	1.91229
681.629	1.33553
684.521	3.0995
687.414	2.09546
690.307	2.33424
693.199	1.7308
696.092	2.95515
698.985	0.649704
701.878	2.5093
704.77	2.24168
707.663	0.097885
710.556	2.48679
713.448	2.99207
716.341	0.564255
719.234	1.93145
722.127	1.43197
725.019	1.42939
727.912	0.625328
730.805	0.123238
733.697	0.902191
736.59	1.17567
739.483	2.46139
742.375	1.12728
745.268	0.858208
748.161	0.699333
751.054	3.4927
753.946	0.402367
756.839	1.61138
759.732	2.16885
762.625	0.825996
765.517	1.99848
768.41	2.7512
771.303	1.19512
774.195	1.10303
777.088	0.171745
779.981	1.18967
782.873	1.9403
785.766	2.36368
788.659	1.67996
791.552	1.77768
794.444	0.704605
797.337	1.8499
800.23	1.07736
803.122	1.69132
806.015	2.43104
808.908	0.249237
811.8	3.13099
814.693	2.36952
817.586	0.157799
820.479	2.47392
823.371	1.05953
826.264	0.794685
829.157	1.91161
832.049	0.95414
834.942	2.29501
837.835	2.00412
840.727	2.68124
843.62	1.46874
846.513	3.05686
849.405	1.16581
852.298	1.78719
855.191	3.51666
858.084	2.05741
860.976	1.64017
863.869	2.59608
866.762	1.3595
869.654	1.79365
872.547	1.13018
875.44	1.05941
878.333	1.79215
881.225	1.32517
884.118	1.3314
887.011	1.0454
889.903	3.46463
892.796	1.36906
895.689	2.30814
898.582	2.60637
901.474	0.799942
904.367	1.24781
907.26	0.58075
910.152	2.22414
913.045	1.85629
915.938	1.42763
918.83	1.59338
921.723	3.32805
924.616	2.14336
927.509	1.1454
930.401	1.133
933.294	1.90683
936.187	0.447952
939.079	2.54097
941.972	2.08099
944.865	0.183914
947.757	2.09414
950.65	2.45015
953.543	0.188324
956.436	1.21337
959.328	0.934525
962.221	2.21372
965.114	3.01195
968.006	1.70406
970.899	2.15192
973.792	1.23586
976.684	2.69871
979.577	0.406876
982.47	0.516762
985.362	1.63746
988.255	0.328331
991.148	0.824234
994.041	0.161392
996.933	0.829102
999.826	0.118408
1002.72	1.303
1005.61	1.64599
1008.5	2.99254
1011.4	2.35441
1014.29	0.509773
1017.18	1.08874
1020.08	1.0252
1022.97	1.38859
1025.86	0.928177
1028.75	2.02434
1031.65	0.547256
1034.54	2.06474
1037.43	1.7582
1040.32	0.61869
1043.22	1.60021
1046.11	2.18793
1049	1.12258
1051.89	1.63686
1054.79	1.72561
1057.68	1.41043
1060.57	0.95118
1063.47	2.5787
1066.36	0.649055
1069.25	0.103439
1072.14	0.114532
1075.04	1.33112
1077.93	0.560822
1080.82	0.109924
1083.71	1.51499
1086.61	0.089592
1089.5	1.16456
1092.39	2.14729
1095.29	3.18847
1098.18	2.56521
1101.07	0.333946
1103.96	3.36381
1106.86	2.92481
1109.75	1.41037
1112.64	0.607819
1115.53	1.84244
1118.43	0.537437
1121.32	2.37116
1124.21	0.317368
1127.11	1.1031
1130	1.58911
1132.89	0.765205
1135.78	2.96121
1138.68	1.10654
1141.57	2.45552
1144.46	0.998947
1147.35	0.494453
1150.25	0.657616
1153.14	1.20594
1156.03	1.13045
1158.92	1.74158
1161.82	1.87086
1164.71	0.149765
1167.6	1.22929
1170.5	2.10262
1173.39	2.92321
1176.28	0.471695
1179.17	1.74621
1182.07	1.58834
1184.96	1.61911
1187.85	0.988914
1190.74	1.65423
1193.64	1.28771
1196.53	1.20074
1199.42	1.58294
1202.32	2.7336
1205.21	0.891891
1208.1	1.7142
1210.99	1.35711
1213.89	0.423798
1216.78	0.965149
1219.67	0.163727
1222.56	1.44312
1225.46	1.43833
1228.35	1.98957
1231.24	1.28431
1234.13	1.61053
1237.03	0.790222
1239.92	1.27827
1242.81	2.72689
1245.71	1.98471
1248.6	1.69594
1251.49	1.9465
1254.38	0.671448
1257.28	1.12668
1260.17	0.644699
1263.06	0.706558
1265.95	1.6262
1268.85	1.38969
1271.74	2.155
1274.63	2.28623
1277.53	0.819176
1280.42	1.55887
1283.31	1.95463
1286.2	0.64183
1289.1	2.03372
1291.99	2.52428
1294.88	0.663757
1297.78	0.081512
1300.67	0.696198
