Measurement: Raman, 780 nm, unoriented, Raman Data Processed
Mineral: Gustavite
Rruff sample: R110004
Ideal chemistry: Ag^1+^Pb^2+^Bi^3+^_3_S^2-^_6_
Locality: Rotgulden, Murwinkel, Lungau, Salzburg, Austria
Source: William W Pinch
Description: Grayish white metallic massive, associated with pyrrhotite-4C and xilingolite R100060. Hard to visually distinguish gustavite and xilingolite.
Measured chemistry: Ag_1.04_Pb_1.13_(Bi_2.80_Sb_0.18_)_Î£=2.98_S_6_
Raman shift (cm-1)	intensity
173.53	0
176.422	1.4869
179.315	2.55624
182.208	3.04532
185.1	0.690275
187.993	0.298527
190.886	1.46815
193.778	2.76568
196.671	2.32675
199.564	1.44988
202.457	3.04014
205.349	3.51591
208.242	2.41535
211.135	2.65013
214.027	2.37334
216.92	0.046469
219.813	2.2191
222.705	2.24645
225.598	2.63881
228.491	4.68398
231.383	4.62982
234.276	3.44194
237.169	4.17905
240.061	4.72911
242.954	2.29179
245.847	6.62426
248.74	6.62178
251.632	3.66755
254.525	6.28421
257.418	4.71666
260.31	6.6115
263.203	7.02465
266.096	5.27861
268.988	8.63865
271.881	8.4111
274.774	7.79792
277.667	7.15732
280.559	7.43371
283.452	4.3021
286.345	4.55975
289.237	4.05298
292.13	2.75734
295.023	3.6619
297.916	0.388634
300.808	1.02092
303.701	1.17631
306.594	0.015559
309.486	1.16159
312.379	0.071391
315.272	0.051825
318.164	0.709688
321.057	0.270076
323.95	0.081923
326.842	1.27299
329.735	1.07449
332.628	1.72478
335.521	0.420661
338.413	0.940621
341.306	3.66082
344.199	1.05448
347.091	2.61459
349.984	2.67304
352.877	2.04127
355.769	2.09518
358.662	2.37519
361.555	0.521928
364.447	2.94875
367.34	3.02772
370.233	1.81261
373.126	2.669
376.018	1.80912
378.911	1.86045
381.804	2.82943
384.696	1.31301
387.589	2.05098
390.482	0.92529
393.375	2.68367
396.267	1.00999
399.16	1.71879
402.053	0.844149
404.945	1.76478
407.838	1.82848
410.731	0.927476
413.623	0.398443
416.516	1.40637
419.409	1.16518
422.301	2.08876
425.194	0.198573
428.087	1.33116
430.98	2.30428
433.872	2.2212
436.765	0.447369
439.658	0.422906
442.55	2.84771
445.443	2.74539
448.336	0.900733
451.228	0.814224
454.121	1.67021
457.014	0.219976
459.907	1.52921
462.799	2.84956
465.692	1.19935
468.585	1.82827
471.477	2.20387
474.37	1.4691
477.263	0.204704
480.156	3.31046
483.048	1.14314
485.941	1.12458
488.834	1.0765
491.726	0.553093
494.619	2.62208
497.512	2.53909
500.404	1.80905
503.297	1.38484
506.19	2.17665
509.082	2.66798
511.975	2.60963
514.868	1.54172
517.761	1.19103
520.653	2.82334
523.546	2.39557
526.439	0.312932
529.331	2.3447
532.224	0.028708
535.117	1.91313
538.01	3.05083
540.902	0.486645
543.795	2.6333
546.688	1.44003
549.58	1.30443
552.473	2.97595
555.366	1.59628
558.258	1.8722
561.151	0.732157
564.044	1.45358
566.936	0.334184
569.829	1.58974
572.722	1.8604
575.615	1.2008
578.507	0.427192
581.4	2.67774
584.293	1.75764
587.185	1.01252
590.078	1.2357
592.971	1.23981
595.863	1.64567
598.756	1.78196
601.649	2.32153
604.542	0.13692
607.434	1.17891
610.327	2.03272
613.22	1.78072
616.112	0.039616
619.005	2.09881
621.898	2.88777
624.79	0.31713
627.683	1.59521
630.576	1.40484
633.468	0.183284
636.361	1.09609
639.254	1.09614
642.146	1.27937
645.039	1.17691
647.932	1.1689
650.825	2.0724
653.717	0.496047
656.61	2.34156
659.503	1.88685
662.395	0.054392
665.288	0.910232
668.181	2.70266
671.073	0.600885
673.966	2.313
676.859	1.53957
679.752	0.727881
682.644	0.629648
685.537	1.30793
688.43	0.78251
691.322	1.67532
694.215	1.21236
697.108	1.48968
700	0.029179
702.893	1.37122
705.786	3.16194
708.679	3.00842
711.571	2.80299
714.464	1.22929
717.357	0.92005
720.249	1.45026
723.142	0.94752
726.035	0.458414
728.928	1.86237
731.82	0.370786
734.713	1.75612
737.606	0.241949
740.498	1.81924
743.391	0.723164
746.284	1.4234
749.176	0.33607
752.069	1.56135
754.962	0.270863
757.855	0.228306
760.747	1.51597
763.64	1.08615
766.533	1.87756
769.425	0.354574
772.318	1.29856
775.211	2.02309
778.103	0.336546
780.996	1.82413
783.889	0.898533
786.782	0.844619
789.674	2.77444
792.567	1.08417
795.46	1.37568
798.352	0.909606
801.245	2.22273
804.138	1.87766
807.03	1.29671
809.923	1.61831
812.816	3.05265
815.708	2.02041
818.601	1.80913
821.494	1.72269
824.386	1.21231
827.279	1.46346
830.172	1.46986
833.065	2.29899
835.957	2.5372
838.85	1.46976
841.743	0.079834
844.635	2.54886
847.528	0.318676
850.421	0.901797
853.313	1.00372
856.206	0.363626
859.099	1.94471
861.992	3.1219
864.884	1.41432
867.777	2.36619
870.67	2.53983
873.562	2.23523
876.455	1.2139
879.348	3.55309
882.24	2.78911
885.133	1.35064
888.026	0.604853
890.919	2.89048
893.811	1.90847
896.704	0.97828
899.597	1.17169
902.489	1.78873
905.382	1.03298
908.275	0.976867
911.168	2.02333
914.06	1.30361
916.953	1.76493
919.846	1.85027
922.738	0.293804
925.631	2.22077
928.524	1.15856
931.416	0.004047
934.309	0.370429
937.202	1.05782
940.095	0.769494
942.987	1.00595
945.88	1.02509
948.773	2.35005
951.665	0.829258
954.558	2.38826
957.451	1.60373
960.343	1.93116
963.236	2.42632
966.129	0.398388
969.021	0.791014
971.914	1.60577
974.807	1.61298
977.699	1.4379
980.592	2.78292
983.485	0.371086
986.378	0.571211
989.27	1.4602
992.163	2.38343
995.056	0.353434
997.948	3.02029
1000.84	2.6397
1003.73	1.55866
1006.63	3.41919
1009.52	1.80136
1012.41	0.739055
1015.3	1.39945
1018.2	1.29015
1021.09	1.88794
1023.98	1.85126
1026.88	0.120719
1029.77	1.49443
1032.66	1.78191
1035.55	0.500043
1038.45	1.01448
1041.34	0.84298
1044.23	0.30001
1047.12	1.15669
1050.02	2.9483
1052.91	0.829175
1055.8	0.532706
1058.69	1.68725
1061.59	1.21026
1064.48	1.84976
1067.37	0.293566
1070.27	2.40697
1073.16	1.67433
1076.05	1.17606
1078.94	0.099798
1081.84	1.89817
1084.73	1.28759
1087.62	1.72326
1090.52	1.68713
1093.41	1.71875
1096.3	2.37871
1099.19	2.73177
1102.09	2.93474
1104.98	0.537592
1107.87	2.90467
1110.76	0.151541
1113.66	0.262121
1116.55	2.56377
1119.44	2.96015
1122.33	0.310591
1125.23	1.62064
1128.12	0.900974
1131.01	1.65168
1133.9	0.366928
1136.8	0.869031
1139.69	1.96723
1142.58	1.04867
1145.48	0.568877
1148.37	1.44524
1151.26	2.72713
1154.15	0.560298
1157.05	2.78919
1159.94	1.58961
1162.83	1.08294
1165.72	1.52642
1168.62	1.43338
1171.51	1.64905
1174.4	2.12404
1177.3	2.95919
1180.19	2.66231
1183.08	2.1706
1185.97	2.6232
1188.87	1.10402
1191.76	1.06624
1194.65	3.01726
1197.55	1.44683
1200.44	2.18762
1203.33	1.76249
1206.22	0.979213
1209.12	2.36533
1212.01	1.5901
1214.9	1.5066
1217.79	1.14896
1220.69	2.03936
1223.58	2.88684
1226.47	3.63941
1229.36	2.37589
1232.26	0.761348
1235.15	4.28195
1238.04	1.83773
1240.93	2.16488
1243.83	3.58075
1246.72	2.88181
1249.61	1.80663
1252.51	2.51452
1255.4	2.69329
1258.29	1.87173
1261.18	2.5026
1264.08	1.30815
1266.97	0.4171
1269.86	1.50504
1272.76	3.2384
1275.65	1.5888
1278.54	2.49003
1281.43	0.639774
1284.33	0.167938
