Measurement: Raman, 532 nm, unoriented, Raman Data Processed
Mineral: Gustavite
Rruff sample: R110004
Ideal chemistry: Ag^1+^Pb^2+^Bi^3+^_3_S^2-^_6_
Locality: Rotgulden, Murwinkel, Lungau, Salzburg, Austria
Source: William W Pinch
Description: Grayish white metallic massive, associated with pyrrhotite-4C and xilingolite R100060. Hard to visually distinguish gustavite and xilingolite.
Measured chemistry: Ag_1.04_Pb_1.13_(Bi_2.80_Sb_0.18_)_Î£=2.98_S_6_
Raman shift (cm-1)	intensity
157.567	0
160.46	4.68313
163.353	7.23475
166.245	8.32364
169.138	4.46398
172.031	1.00226
174.924	1.32584
177.816	6.77214
180.709	10.667
183.602	8.2376
186.494	6.10699
189.387	10.7322
192.28	12.6952
195.173	8.78063
198.065	10.1092
200.958	7.32619
203.851	9.00064
206.743	7.05467
209.636	14.8987
212.529	7.36528
215.421	8.56395
218.314	7.64115
221.207	12.8036
224.1	11.2226
226.992	3.95468
229.885	5.75328
232.778	3.40623
235.67	5.76733
238.563	7.21517
241.456	3.05858
244.348	5.84339
247.241	2.65103
250.134	5.71854
253.026	5.20061
255.919	2.94458
258.812	8.91869
261.705	6.75888
264.597	5.74171
267.49	15.3588
270.383	7.36608
273.276	11.3966
276.168	8.65615
279.061	10.0543
281.954	10.4318
284.846	12.2379
287.739	9.11488
290.632	9.35723
293.524	2.64084
296.417	2.64511
299.31	2.60339
302.202	2.84711
305.095	1.31531
307.988	2.36562
310.881	2.51725
313.773	5.9156
316.666	0.983988
319.559	3.68774
322.451	3.14817
325.344	2.65165
328.237	0.365718
331.13	1.66199
334.022	1.15054
336.915	0.926076
339.808	3.64401
342.7	0.598404
345.593	2.42506
348.486	4.06864
351.378	2.30183
354.271	3.10293
357.164	5.18692
360.057	4.97264
362.949	7.51938
365.842	5.89603
368.735	7.58115
371.627	5.22694
374.52	2.60976
377.413	5.29672
380.305	2.68608
383.198	2.96241
386.091	2.06765
388.984	5.25737
391.876	3.19593
394.769	3.60183
397.662	2.45411
400.554	3.54414
403.447	2.84774
406.34	0.367249
409.233	2.87652
412.125	0.911891
415.018	2.61565
417.911	4.66652
420.803	2.40269
423.696	5.27972
426.589	5.71696
429.481	4.74514
432.374	5.05307
435.267	3.09638
438.159	0.666855
441.052	3.11515
443.945	4.17422
446.838	5.91277
449.73	0.959643
452.623	3.97444
455.516	4.30604
458.409	2.23697
461.301	0.10962
464.194	5.55978
467.087	2.22034
469.979	4.4332
472.872	4.26439
475.765	1.98904
478.657	0.666243
481.55	6.57322
484.443	3.43375
487.336	1.27164
490.228	2.41472
493.121	1.55522
496.014	3.19483
498.906	2.71765
501.799	1.94314
504.692	5.13102
507.584	4.92935
510.477	4.90817
513.37	4.6214
516.263	2.63418
519.155	1.21231
522.048	5.87021
524.941	4.67166
527.833	0.333477
530.726	4.10136
533.619	0.352569
536.511	6.26095
539.404	5.49393
542.297	0.923994
545.19	6.13365
548.082	4.73915
550.975	2.88506
553.868	4.60387
556.76	3.59903
559.653	3.36684
562.546	1.07176
565.438	4.27797
568.331	1.87772
571.224	3.20416
574.117	2.80488
577.009	2.17894
579.902	2.17031
582.795	3.13169
585.687	2.22666
588.58	2.17875
591.473	5.73542
594.365	1.70201
597.258	2.79967
600.151	2.73981
603.044	4.45499
605.936	0.245328
608.829	3.10859
611.722	3.9094
614.614	2.3599
617.507	2.55595
620.4	4.68114
623.293	5.02017
626.185	1.20946
629.078	3.19044
631.971	3.47384
634.863	1.54618
637.756	3.12004
640.649	1.68043
643.542	2.08806
646.434	5.39259
649.327	4.08887
652.22	1.46331
655.112	2.20564
658.005	0.854442
660.898	2.32208
663.79	1.28878
666.683	0.856766
669.576	3.63302
672.468	5.21582
675.361	3.24684
678.254	3.40186
681.147	2.45309
684.039	2.50406
686.932	2.8661
689.825	0.714093
692.717	1.0022
695.61	0.637
698.503	2.75449
701.396	3.28502
704.288	0.487315
707.181	0.109461
710.074	6.68714
712.966	3.42829
715.859	2.44261
718.752	6.3399
721.644	2.28003
724.537	1.87449
727.43	2.02929
730.323	2.32897
733.215	2.72637
736.108	0.763373
739.001	3.84322
741.893	1.17646
744.786	4.7319
747.679	1.4445
750.572	3.112
753.464	0.763992
756.357	2.98736
759.25	0.1711
762.142	2.25798
765.035	3.94434
767.928	3.34657
770.82	4.52394
773.713	2.38158
776.606	4.01183
779.499	4.81606
782.391	2.59875
785.284	4.56455
788.177	1.46381
791.069	0.265252
793.962	5.70659
796.855	6.1516
799.747	3.751
802.64	2.38082
805.533	3.94386
808.426	2.41531
811.318	5.46664
814.211	6.77101
817.104	4.40642
819.996	3.09583
822.889	3.15023
825.782	2.8634
828.674	2.42351
831.567	3.9898
834.46	2.70071
837.353	3.89079
840.245	4.63736
843.138	1.76001
846.031	3.86705
848.923	0.358004
851.816	5.14461
854.709	2.69818
857.601	3.68725
860.494	4.65403
863.387	0.973393
866.28	5.43958
869.172	5.04282
872.065	3.64517
874.958	4.32556
877.851	4.30876
880.743	4.55527
883.636	2.92972
886.529	6.43057
889.421	5.17865
892.314	2.47956
895.207	0.95793
898.099	5.35562
900.992	2.91577
903.885	2.65344
906.778	1.44858
909.67	2.51987
912.563	3.1024
915.456	0.76964
918.348	3.48606
921.241	2.97686
924.134	4.09865
927.026	4.01545
929.919	2.41127
932.812	2.96386
935.705	2.04114
938.597	1.87271
941.49	0.465267
944.383	4.02516
947.275	3.314
950.168	4.24538
953.061	4.9751
955.953	0.117427
958.846	0.075472
961.739	2.93505
964.631	3.19137
967.524	2.83565
970.417	4.5642
973.31	1.99032
976.202	0.782035
979.095	3.53191
981.988	7.93593
984.88	5.47775
987.773	5.48564
990.666	3.89344
993.559	2.48972
996.451	1.36918
999.344	3.86195
1002.24	5.92937
1005.13	1.63543
1008.02	5.15124
1010.91	6.71133
1013.81	3.85563
1016.7	7.05107
1019.59	3.69141
1022.49	2.3492
1025.38	3.0063
1028.27	2.42768
1031.16	2.48192
1034.06	5.4816
1036.95	2.31352
1039.84	4.96398
1042.73	3.45231
1045.63	3.06003
1048.52	0.439175
1051.41	1.30421
1054.31	0.024154
1057.2	3.73189
1060.09	5.25491
1062.98	4.10938
1065.88	0.77371
1068.77	1.17912
1071.66	1.83632
1074.55	5.25734
1077.45	3.76253
1080.34	2.64388
1083.23	4.93365
1086.12	2.80072
1089.02	0.176464
1091.91	4.92129
1094.8	3.98228
1097.7	2.41979
1100.59	2.9963
1103.48	2.2299
1106.37	4.78425
1109.27	3.49921
1112.16	3.93626
1115.05	4.96301
1117.94	3.40646
1120.84	6.38487
1123.73	0.199252
1126.62	0.042081
1129.52	3.98935
1132.41	6.36983
1135.3	0.313823
1138.19	2.90822
1141.09	2.32795
1143.98	3.78324
1146.87	1.05918
1149.77	1.62058
1152.66	5.12662
1155.55	2.71529
1158.44	0.418947
1161.34	1.56416
1164.23	3.83258
1167.12	0.090654
1170.01	2.19453
1172.91	2.18604
1175.8	5.5409
1178.69	1.39868
1181.58	1.88065
1184.48	3.3641
1187.37	2.41577
1190.26	3.11782
1193.15	1.05621
1196.05	0.726298
1198.94	5.62316
1201.83	1.28225
1204.73	0.911931
1207.62	0.847829
1210.51	4.71372
1213.4	3.23656
1216.3	3.29767
1219.19	5.18255
1222.08	1.46287
1224.97	4.90051
1227.87	2.98296
1230.76	2.69138
1233.65	2.78177
1236.55	3.98423
1239.44	5.26871
1242.33	6.05039
1245.22	4.76599
1248.12	0.501034
1251.01	6.43966
1253.9	3.45158
1256.8	4.47452
1259.69	4.40642
1262.58	2.72472
1265.47	5.59592
1268.37	4.45436
1271.26	3.03708
1274.15	2.92431
1277.04	3.67536
1279.94	0.733554
1282.83	3.15333
1285.72	2.47347
1288.61	4.47041
1291.51	6.32731
1294.4	1.35616
1297.29	3.59052
1300.18	0.5836
