Measurement: Raman, 532 nm, unoriented, Raman Data Processed
Mineral: Guyanaite
Rruff sample: R070444
Ideal chemistry: Cr^3+^O(OH)
Locality: Merume river, Kamakusa, Mazaruni District, Guyana
Source: Michael Scott
Description: Black alluvial grains, a mixture of guyanaite, bracewellite, eskolaite and quartz, colloquially known as merumite
Raman shift (cm-1)	intensity
165.833	0
168.725	2.13611
171.618	20.6847
174.511	31.8919
177.404	47.8928
180.296	56.3353
183.189	45.3875
186.082	42.5332
188.974	28.8225
191.867	80.0867
194.76	44.7324
197.652	77.3386
200.545	77.8621
203.438	86.4133
206.331	79.356
209.223	78.387
212.116	75.7795
215.009	72.8069
217.901	52.9834
220.794	66.5059
223.687	71.8418
226.579	54.6028
229.472	34.5859
232.365	34.5984
235.257	47.697
238.15	41.679
241.043	37.2524
243.936	28.812
246.828	43.0688
249.721	12.6479
252.614	6.29199
255.506	20.6675
258.399	7.69678
261.292	8.81445
264.185	32.4194
267.077	0.078125
269.97	7.5144
272.863	13.4285
275.755	16.8621
278.648	17.9841
281.541	7.97583
284.433	40.1445
287.326	47.1855
290.219	42.2622
293.111	41.5591
296.004	44.5981
298.897	2.29419
301.79	36.5945
304.682	60.0754
307.575	69.8672
310.468	30.5444
313.36	58.1619
316.253	80.4009
319.146	31.7532
322.038	67.4751
324.931	73.3967
327.824	77.0102
330.717	74.2256
333.609	43.4429
336.502	34.4116
339.395	22.9836
342.287	33.6746
345.18	49.4665
348.073	52.2117
350.966	47.313
353.858	60.0793
356.751	24.6304
359.644	26.2541
362.536	1.81152
365.429	15.8777
368.322	19.0581
371.214	23.5295
374.107	35.5195
377	51.5361
379.892	29.5017
382.785	6.94385
385.678	22.6467
388.571	10.2615
391.463	35.2905
394.356	14.5156
397.249	41.2402
400.142	6.5271
403.034	31.094
405.927	26.9661
408.82	53.044
411.712	14.8494
414.605	4.57764
417.498	16.0337
420.39	50.9277
423.283	18.8377
426.176	49.3718
429.068	98.2703
431.961	56.0308
434.854	3.18188
437.747	43.0862
440.639	58.3484
443.532	45.3682
446.425	61.7022
449.317	85.614
452.21	56.0356
455.103	68.4959
457.995	46.0566
460.888	115.825
463.781	52.6011
466.674	71.0996
469.566	92.5041
472.459	101.092
475.352	75.5217
478.244	58.1531
481.137	61.51
484.03	58.7244
486.923	100.334
489.815	92.0918
492.708	105.906
495.601	65.1255
498.493	107.421
501.386	10.4085
504.279	65.5288
507.171	55.9106
510.064	32.4309
512.957	70.8198
515.85	19.7324
518.742	13.6636
521.635	29.1379
524.528	52.0898
527.42	38.6511
530.313	29.0281
533.206	55.8765
536.098	2.40381
538.991	8.13062
541.884	19.4509
544.777	19.8975
547.669	59.8777
550.562	38.188
553.455	20.6352
556.347	56.2888
559.24	49.5207
562.133	22.4119
565.025	30.176
567.918	46.7642
570.811	32.7129
573.704	42.0022
576.596	46.2776
579.489	47.3462
582.382	76.5586
585.274	55.8174
588.167	93.6604
591.06	63.6309
593.952	111.546
596.845	127.448
599.738	83.7331
602.631	103.57
605.523	102.418
608.416	137.818
611.309	135.341
614.201	121.093
617.094	80.6035
619.987	119.696
622.88	113.256
625.772	99.8315
628.665	114.809
631.558	115.088
634.45	176.631
637.343	144.247
640.236	92.7568
643.128	123.668
646.021	106.443
648.914	58.7661
651.807	61.127
654.699	95.6377
657.592	81.9263
660.485	99.8154
663.377	80.2959
666.27	111.791
669.163	39.7588
672.055	51.937
674.948	72.2139
677.841	47.4683
680.734	88.8906
683.626	121.234
686.519	83.2119
689.412	25.0176
692.304	31.6777
695.197	106.505
698.09	67.5229
700.982	28.7183
703.875	51.1602
706.768	86.3628
709.66	60.1465
712.553	34.3926
715.446	38.166
718.339	50.2144
721.231	15.7559
724.124	34.8696
727.017	38.4097
729.909	25.4936
732.802	61.5298
735.695	30.3765
738.587	33.3584
741.48	2.66211
744.373	14.1045
747.266	38.0576
750.158	24.6963
753.051	0.286621
755.944	11.0444
758.836	8.8916
761.729	17.46
764.622	1.69092
767.514	15.4477
770.407	44.645
773.3	35.2329
776.193	8.38086
779.085	41.8223
781.978	26.7686
784.871	11.4326
787.763	51.4126
790.656	60.2188
793.549	47.0586
796.442	34.2881
799.334	96.2412
802.227	81.3804
805.12	61.8691
808.012	79.9258
810.905	51.377
813.798	93.0679
816.69	75.936
819.583	87.6758
822.476	85.0347
825.369	19.4287
828.261	65.6685
831.154	55.4849
834.047	73.9912
836.939	44.7534
839.832	63.7046
842.725	93.1807
845.617	83.6436
848.51	71.2153
851.403	47.1411
854.296	59.5796
857.188	52.7153
860.081	5.76856
862.974	37.0884
865.866	41.5049
868.759	30.7095
871.652	39.6318
874.544	86.3467
877.437	44.5381
880.33	57.1401
883.223	52.6352
886.115	64.3579
889.008	37.9605
891.901	18.9273
894.793	38.5581
897.686	48.0176
900.579	9.01367
903.471	61.3965
906.364	35.6196
909.257	19.0942
912.15	50.6489
915.042	7.35742
917.935	58.3477
920.828	22.5508
923.72	24.8364
926.613	34.5112
929.506	46.081
932.399	64.6553
935.291	48.9985
938.184	76.2144
941.077	7.49316
943.969	43.5454
946.862	37.9648
949.755	21.7021
952.647	56.9302
955.54	61.544
958.433	9.54346
961.326	63.0918
964.218	57.3989
967.111	2.46143
970.004	25.6333
972.896	62.4619
975.789	15.2524
978.682	26.0581
981.574	57.1577
984.467	4.8501
987.36	1.16846
990.253	71.3247
993.145	72.2856
996.038	77.4702
998.931	55.5298
1001.82	46.124
1004.72	3.67627
1007.61	90.2495
1010.5	17.1548
1013.39	34.437
1016.29	47.1572
1019.18	53.7881
1022.07	37.3779
1024.96	27.7607
1027.86	45.6523
1030.75	54.125
1033.64	53.1841
1036.54	97.6553
1039.43	62.0171
1042.32	53.3809
1045.21	97.1133
1048.11	63.1221
1051	48.0518
1053.89	56.8398
1056.79	1.26025
1059.68	34.1694
1062.57	15.9648
1065.46	35.1899
1068.36	55.3032
1071.25	4.57227
1074.14	30.6343
1077.03	79.7598
1079.93	31.1504
1082.82	37.895
1085.71	76.5772
1088.6	47.8262
1091.5	37.5005
1094.39	88.5601
1097.28	65.9458
1100.17	61.9995
1103.07	58.8799
1105.96	72.5376
1108.85	29.0083
1111.75	32.7861
1114.64	12.959
1117.53	9.70264
1120.42	26.7412
1123.32	53.0483
1126.21	43.4336
1129.1	48.3193
1131.99	48.458
1134.89	59.4409
1137.78	18.687
1140.67	81.0439
1143.57	42.7285
1146.46	78.6587
1149.35	33.5488
1152.24	43.0024
1155.14	36.1743
1158.03	98.7827
1160.92	89.6636
1163.82	13.4712
1166.71	44.5469
1169.6	61.5981
1172.49	2.45752
1175.38	17.4673
1178.28	49.916
1181.17	30.9893
1184.06	22.0015
1186.96	77.8091
1189.85	4.08691
1192.74	115.589
1195.63	65.2266
1198.53	64.7212
1201.42	9.2207
1204.31	15.5273
1207.2	24.8066
1210.1	44.8633
1212.99	44.6265
1215.88	22.5439
1218.78	26.9805
1221.67	28.9727
1224.56	86.8784
1227.45	76.9966
1230.35	70.3838
1233.24	15.7178
1236.13	5.1416
1239.03	79.0259
1241.92	17.4966
1244.81	74.0889
1247.7	26.0249
1250.6	55.4185
1253.49	16.2285
1256.38	16.8735
1259.27	6.51074
1262.17	30.0176
1265.06	63.2246
1267.95	60.4302
1270.85	66.1738
1273.74	105.216
1276.63	41.0244
1279.52	118.921
1282.41	23.1392
1285.31	68.7812
1288.2	26.021
1291.09	29.7725
1293.99	30.6401
1296.88	48.603
1299.77	7.57666
1302.66	40.6724
1305.56	46.6475
1308.45	39.5884
1311.34	54.2812
1314.23	44.9917
1317.13	36.1904
