Measurement: Raman, 532 nm, unoriented, Raman Data Processed
Mineral: Hammarite
Rruff sample: R110028
Ideal chemistry: Cu^1+^_2_Pb^2+^_2_Bi^3+^_4_S^2-^_9_
Locality: Baita Mining District (Baita Bihor; Rezbanya), Nucet, Bihor Co., Romania
Source: Bob Jenkins
Description: Steel-gray parallel aggregates of prismatic crystals
Raman shift (cm-1)	intensity
168.656	0
171.549	4.38559
174.441	6.45904
177.334	12.3142
180.227	10.9336
183.119	21.5985
186.012	20.7839
188.905	24.1448
191.798	12.355
194.69	0.895462
197.583	2.78781
200.476	9.42058
203.369	2.94978
206.261	6.76429
209.154	0.637975
212.047	17.0916
214.939	4.61274
217.832	4.66618
220.725	11.4358
223.617	7.74252
226.51	0.038809
229.403	5.17753
232.296	8.82175
235.188	11.9146
238.081	7.18422
240.974	17.8058
243.866	11.0151
246.759	17.5906
249.652	10.9858
252.544	21.5846
255.437	25.4919
258.33	27.8069
261.223	29.9266
264.115	24.171
267.008	13.6154
269.901	20.2733
272.793	17.9589
275.686	16.181
278.579	13.36
281.471	12.8073
284.364	11.7603
287.257	10.226
290.15	3.51904
293.042	4.57137
295.935	11.3146
298.828	3.18516
301.72	12.0366
304.613	12.1642
307.506	7.68411
310.399	4.80551
313.291	8.2611
316.184	8.79496
319.077	0.937895
321.969	9.2143
324.862	8.74618
327.755	11.5973
330.647	4.64755
333.54	1.43985
336.433	0.273932
339.325	0.149083
342.218	10.5595
345.111	12.5675
348.004	7.36878
350.896	2.58328
353.789	6.83374
356.682	4.62595
359.574	2.85669
362.467	0.898258
365.36	6.58706
368.253	8.59212
371.145	6.63902
374.038	10.2718
376.931	10.5686
379.823	9.50793
382.716	4.92481
385.609	8.82001
388.502	1.50802
391.394	4.31273
394.287	6.18089
397.18	0.643848
400.072	5.18028
402.965	2.38702
405.858	5.98952
408.75	7.67946
411.643	10.9372
414.536	0.901702
417.428	5.61537
420.321	3.62717
423.214	12.7916
426.107	6.41984
428.999	1.88725
431.892	2.39859
434.785	3.62184
437.677	3.2072
440.57	5.3675
443.463	4.94709
446.356	4.09191
449.248	3.69168
452.141	5.56017
455.034	6.85716
457.926	7.64261
460.819	6.81888
463.712	1.57892
466.604	8.73108
469.497	13.4402
472.39	8.80602
475.283	7.87409
478.175	4.67973
481.068	7.06712
483.961	9.0323
486.853	7.25718
489.746	1.14214
492.639	7.6021
495.531	10.1271
498.424	4.47863
501.317	7.2574
504.21	4.29076
507.102	8.52535
509.995	8.20848
512.888	10.8658
515.78	5.1722
518.673	14.7791
521.566	0.150558
524.458	1.28508
527.351	8.65812
530.244	11.3132
533.137	8.43775
536.029	12.876
538.922	11.0383
541.815	7.22662
544.707	8.44248
547.6	5.39369
550.493	7.10036
553.386	3.96468
556.278	0.030438
559.171	11.5629
562.064	8.85908
564.956	8.48385
567.849	2.86281
570.742	9.14828
573.635	3.29444
576.527	4.71741
579.42	5.64147
582.313	1.4284
585.205	3.48414
588.098	2.17735
590.991	5.89063
593.883	7.27299
596.776	0.295371
599.669	7.96996
602.562	3.80284
605.454	6.011
608.347	8.42357
611.24	6.61662
614.132	6.55767
617.025	1.54673
619.918	1.19536
622.81	3.93773
625.703	1.16441
628.596	5.73597
631.489	4.13258
634.381	6.76264
637.274	2.37507
640.167	2.5189
643.059	8.29395
645.952	6.55948
648.845	2.6372
651.737	3.78149
654.63	2.36142
657.523	4.72502
660.416	3.86166
663.308	2.93749
666.201	7.52084
669.094	0.490469
671.986	5.23357
674.879	4.004
677.772	6.19158
680.664	10.261
683.557	3.65738
686.45	6.44817
689.343	2.83375
692.235	8.41703
695.128	0.337518
698.021	3.30044
700.913	5.15666
703.806	4.35802
706.699	4.09026
709.592	10.105
712.484	10.5865
715.377	3.42937
718.27	4.0268
721.162	9.43562
724.055	9.81444
726.948	5.23245
729.841	1.33082
732.733	9.69871
735.626	0.796898
738.519	2.71174
741.411	5.06384
744.304	9.91325
747.197	9.04303
750.089	0.129082
752.982	8.15254
755.875	3.33641
758.768	5.92931
761.66	7.61657
764.553	6.82656
767.446	9.43732
770.338	5.99721
773.231	5.805
776.124	4.79918
779.016	6.80398
781.909	4.14091
784.802	8.53869
787.694	8.03043
790.587	1.93428
793.48	0.470505
796.373	16.8875
799.265	0.828033
802.158	4.81862
805.051	12.9138
807.943	9.74225
810.836	13.6011
813.729	5.61187
816.621	4.02417
819.514	9.70675
822.407	10.3532
825.3	7.17016
828.192	3.41798
831.085	9.07101
833.978	5.5174
836.87	8.4656
839.763	10.8751
842.656	5.8175
845.549	5.26699
848.441	5.89187
851.334	6.03128
854.227	1.90403
857.119	8.38696
860.012	2.63376
862.905	7.63931
865.798	6.4435
868.69	4.52228
871.583	4.64794
874.476	7.50108
877.368	5.2166
880.261	3.95851
883.154	1.4689
886.046	3.37115
888.939	5.64309
891.832	5.74849
894.725	6.65408
897.617	5.44938
900.51	0.464404
903.403	6.49332
906.295	5.26629
909.188	8.52202
912.081	2.46439
914.973	1.21642
917.866	4.53595
920.759	10.465
923.652	1.85783
926.544	1.16265
929.437	3.88096
932.33	8.99676
935.222	6.90859
938.115	12.388
941.008	0.165862
943.9	3.96759
946.793	1.19479
949.686	6.71167
952.579	7.39374
955.471	5.42788
958.364	3.28863
961.257	2.61732
964.149	8.7106
967.042	8.92062
969.935	10.8017
972.827	4.22397
975.72	5.40072
978.613	3.95533
981.506	4.83433
984.398	5.48917
987.291	1.95213
990.184	1.2334
993.077	8.11741
995.969	8.66553
998.862	6.95994
1001.75	4.2375
1004.65	4.97516
1007.54	3.92964
1010.43	0.784073
1013.33	9.93005
1016.22	7.22303
1019.11	10.1819
1022	1.59549
1024.9	4.9717
1027.79	3.2671
1030.68	10.0588
1033.57	2.23894
1036.47	4.85526
1039.36	7.4052
1042.25	2.5573
1045.14	5.1229
1048.04	2.06561
1050.93	3.0429
1053.82	6.59069
1056.72	7.96468
1059.61	0.173302
1062.5	8.73951
1065.39	5.99683
1068.29	3.38678
1071.18	3.5917
1074.07	8.56182
1076.96	1.30519
1079.86	4.10813
1082.75	3.09032
1085.64	5.61928
1088.54	1.27468
1091.43	0.996283
1094.32	7.8949
1097.21	1.65661
1100.11	7.66634
1103	7.05005
1105.89	3.18411
1108.79	4.71275
1111.68	2.71381
1114.57	4.41322
1117.46	9.03025
1120.36	4.19282
1123.25	8.03917
1126.14	2.64044
1129.03	9.51281
1131.93	2.97058
1134.82	9.38545
1137.71	4.39729
1140.6	2.80951
1143.5	3.61683
1146.39	7.46911
1149.28	2.83832
1152.17	4.03877
1155.07	10.02
1157.96	4.05287
1160.85	6.81027
1163.75	4.57659
1166.64	1.38159
1169.53	7.37916
1172.42	8.56925
1175.32	6.9763
1178.21	1.2306
1181.1	8.6989
1183.99	3.76892
1186.89	10.8828
1189.78	3.34544
1192.67	7.98311
1195.57	0.851975
1198.46	6.58458
1201.35	6.98929
1204.24	5.40869
1207.14	6.63979
1210.03	3.84402
1212.92	13.5616
1215.82	5.80931
1218.71	8.8261
1221.6	1.95286
1224.49	2.57214
1227.38	5.16182
1230.28	4.78114
1233.17	12.1558
1236.06	2.94294
1238.96	2.45906
1241.85	4.04872
1244.74	7.39746
1247.63	7.64781
1250.53	5.03626
1253.42	9.13325
1256.31	7.28867
1259.2	4.49383
1262.1	9.25683
1264.99	6.56001
1267.88	4.43642
1270.78	0.087003
1273.67	4.74015
1276.56	5.56023
1279.45	5.86642
1282.35	2.96998
1285.24	8.50972
1288.13	9.30979
1291.03	1.40689
1293.92	1.5518
1296.81	3.73558
1299.7	10.9758
1302.6	0
