Measurement: Raman, 780 nm, unoriented, Raman Data RAW
Mineral: Hardystonite
Rruff sample: R040026
Ideal chemistry: Ca_2_Zn^2+^Si_2_O_7_
Locality: Franklin, Sussex County, New Jersey, USA
Source: University of Arizona Mineral Museum
Description: White massive
Measured chemistry: (Ca_1.98_Mn_0.02_)_Σ=2_(Zn_0.99_Al_0.01_)_Σ=1_(Si_1.99_Al_0.01_)_Σ=2_O_7_
Raman shift (cm-1)	intensity
118.616	2970.9
121.509	3214.65
124.401	3452.37
127.294	3732.54
130.187	4075.63
133.079	4408.44
135.972	4755.38
138.865	5114.39
141.757	5442.86
144.65	5748.06
147.543	5991.25
150.436	6237.52
153.328	6384.44
156.221	6464.06
159.114	6493.03
162.006	6450.12
164.899	6359.9
167.792	6249.77
170.685	6054.83
173.577	5865.92
176.47	5669.38
179.363	5450.06
182.255	5234.89
185.148	5013.84
188.041	4824.64
190.933	4615.96
193.826	4434.81
196.719	4233.25
199.612	4075.41
202.504	3926.14
205.397	3792.59
208.29	3672.83
211.182	3581.82
214.075	3478.42
216.968	3394.64
219.86	3348.03
222.753	3304.39
225.646	3273.94
228.538	3254.59
231.431	3255.95
234.324	3267.1
237.217	3272.19
240.109	3303.12
243.002	3352.04
245.895	3403.09
248.787	3441.04
251.68	3513.22
254.573	3596.3
257.466	3684.19
260.358	3797.79
263.251	3930.65
266.144	4080.71
269.036	4239.31
271.929	4393.72
274.822	4609.97
277.714	4859.7
280.607	5096.36
283.5	5370.86
286.392	5666.86
289.285	5954.56
292.178	6232.95
295.071	6561.52
297.963	6755.38
300.856	6991.17
303.749	7136.9
306.641	7273.73
309.534	7379.42
312.427	7516.87
315.32	7655.39
318.212	7826.19
321.105	7983.95
323.998	8098.44
326.89	8199.53
329.783	8248.04
332.676	8207.52
335.568	8134.07
338.461	8024.85
341.354	7938.4
344.247	7799.07
347.139	7709.38
350.032	7622.66
352.925	7590.85
355.817	7578.21
358.71	7616.76
361.603	7726.57
364.495	7917.92
367.388	8174.07
370.281	8570.44
373.173	9086.86
376.066	9716.15
378.959	10492.7
381.852	11406.5
384.744	12469.1
387.637	13556
390.53	14701.6
393.422	15780.2
396.315	16669.9
399.208	17306.5
402.1	17579.6
404.993	17452.9
407.886	17026.2
410.779	16291.8
413.671	15393
416.564	14427
419.457	13503.9
422.349	12572.9
425.242	11780.2
428.135	11049.2
431.027	10380
433.92	9855.59
436.813	9394.98
439.705	9034.67
442.598	8676.98
445.491	8447.15
448.384	8221.83
451.276	8068.1
454.169	7914.65
457.062	7829.24
459.954	7752.32
462.847	7725.62
465.74	7720.04
468.632	7724.62
471.525	7720.77
474.418	7740.69
477.311	7743.13
480.203	7750.78
483.096	7735.22
485.989	7666.9
488.881	7593.74
491.774	7480.49
494.667	7346.96
497.56	7204.75
500.452	7007.4
503.345	6824.51
506.238	6629.4
509.13	6432.33
512.023	6263.06
514.916	6090.87
517.808	5941.66
520.701	5786.9
523.594	5657.59
526.486	5519.43
529.379	5387.19
532.272	5267.6
535.165	5150.57
538.057	5051.73
540.95	4956.77
543.843	4865.57
546.735	4789.97
549.628	4721.36
552.521	4637.99
555.413	4576.11
558.306	4508.16
561.199	4468.84
564.092	4437.77
566.984	4362.79
569.877	4336.24
572.77	4290.71
575.662	4273.54
578.555	4261.99
581.448	4240.23
584.341	4230.07
587.233	4217.87
590.126	4223.7
593.019	4216.67
595.911	4234.76
598.804	4229.09
601.697	4257.64
604.589	4273.05
607.482	4312.34
610.375	4327.34
613.268	4312.14
616.16	4252.97
619.053	4157.45
621.946	4064.59
624.838	3993.29
627.731	3935.22
630.624	3853.87
633.516	3814.06
636.409	3758.68
639.302	3723.64
642.194	3714.21
645.087	3705.81
647.98	3724.69
650.873	3750.3
653.765	3803.48
656.658	3888.7
659.551	3960.13
662.443	3937.8
665.336	3785.53
668.229	3602.59
671.121	3475.22
674.014	3329.2
676.907	3240.88
679.8	3152.93
682.692	3051.63
685.585	2968.47
688.478	2900.25
691.37	2827.69
694.263	2751.96
697.156	2678.35
700.048	2588.82
702.941	2509.12
705.834	2433.5
708.727	2364.92
711.619	2266.86
714.512	2197.88
717.405	2097.65
720.297	2033.55
723.19	1971.43
726.083	1894.36
728.976	1829.16
731.868	1750.04
734.761	1692.61
737.654	1636.07
740.546	1582.44
743.439	1528.46
746.332	1481.56
749.224	1425.31
752.117	1379.68
755.01	1344.95
757.903	1303.96
760.795	1264.78
763.688	1227.18
766.581	1194.61
769.473	1155.69
772.366	1129.79
775.259	1096.96
778.151	1074.94
781.044	1047.7
783.937	1024.96
786.83	995.476
789.722	966.968
792.615	943.383
795.508	933.528
798.4	910.361
801.293	888.99
804.186	868.761
807.078	854.727
809.971	833.567
812.864	817.541
815.756	796.712
818.649	780.072
821.542	770.925
824.435	755.002
827.327	744.38
830.22	731.189
833.113	719.347
836.005	713.149
838.898	702.171
841.791	689.912
844.683	683.638
847.576	663.929
850.469	655.587
853.362	650.865
856.254	637.34
859.147	628.3
862.04	626.453
864.932	617.704
867.825	620.149
870.718	607.947
873.611	611.476
876.503	607.748
879.396	611.976
882.289	624.903
885.181	644.023
888.074	664.653
890.967	711.726
893.859	780.615
896.752	866.376
899.645	987.305
902.538	1113.34
905.43	1203.65
908.323	1165.28
911.216	1010.84
914.108	848.997
917.001	744.595
919.894	679.45
922.786	648.359
925.679	616.921
928.572	603.777
931.465	597.609
934.357	593.659
937.25	593.874
940.143	591.759
943.035	591.112
945.928	593.299
948.821	599.764
951.713	592.311
954.606	596.085
957.499	601.518
960.391	601.125
963.284	603.237
966.177	604.992
969.069	608.989
971.962	617.351
974.855	612.193
977.748	623.415
980.64	620.882
983.533	631.147
986.426	643.237
989.318	642.666
992.211	645.718
995.104	664.611
997.996	674.243
1000.89	678.811
1003.78	689.64
1006.67	703.136
1009.57	715.036
1012.46	730.369
1015.35	739.554
1018.25	756.479
1021.14	763.982
1024.03	783.029
1026.92	796.586
1029.82	812.739
1032.71	835.755
1035.6	847.891
1038.49	872.89
1041.39	897.53
1044.28	907.43
1047.17	939.382
1050.07	958.673
1052.96	978.788
1055.85	1010.83
1058.74	1033.81
1061.64	1068.95
1064.53	1099.28
1067.42	1125.87
1070.31	1158.72
1073.21	1202.1
1076.1	1231.87
1078.99	1275.72
1081.88	1315.29
1084.78	1356.57
1087.67	1389.52
1090.56	1427.36
1093.46	1472.94
1096.35	1520.67
1099.24	1579.9
1102.13	1623.67
1105.03	1682.92
1107.92	1748.76
1110.81	1803.61
1113.7	1875.39
1116.6	1940.55
1119.49	2013.39
1122.38	2082.89
1125.28	2168.57
1128.17	2247.56
1131.06	2337.36
1133.95	2422.01
1136.85	2517.68
1139.74	2601.41
1142.63	2696.09
1145.52	2807.18
1148.42	2906.51
1151.31	2983.33
1154.2	3100.7
1157.1	3200.29
1159.99	3326.66
1162.88	3459.84
1165.77	3571.75
1168.67	3710.33
1171.56	3865.62
1174.45	4020.78
1177.34	4169.98
1180.24	4353.75
1183.13	4536.72
1186.02	4722.14
