Measurement: Raman, 785 nm, unoriented, Raman Data Processed
Mineral: Hastingsite
Rruff sample: R070250
Ideal chemistry: NaCa_2_(Fe^2+^_4_Fe^3+^)(Si_6_Al_2_)O_22_(OH)_2_
Locality: unnamed quarry, Dmitrievka village, Mariupol' Massif (Oktyabr'skii), Azov Sea Region, Donetsk Oblast', Ukraine
Source: Michael Scott
Description: Dark green to black crystals exhibiting typical amphibole cleavage
Measured chemistry: ([box]_0.38_Na_0.34_K_0.28_)_Σ=1_(Ca_1.70_Na_0.30_)_Σ=2_((Fe^2+^_2.99_Mg_0.81_Mn_0.07_)_Σ=3.87_(Fe^3+^_0.75_Ti_0.22_Al_0.16_)_Σ=1.13_)_Σ=5_(Si_6.33_Al_1.67_)O_22_((OH)_1.57_F_0.37_Cl_0.06_)_Σ=2_; (OH) estimated by difference
Raman shift (cm-1)	intensity
162.964	0
165.856	130.382
168.749	319.88
171.642	259.138
174.534	191.335
177.427	237.341
180.32	232.875
183.212	302.323
186.105	400.033
188.998	395.272
191.891	375.953
194.783	283.958
197.676	303.918
200.569	401.079
203.461	388.579
206.354	259.343
209.247	190.399
212.139	146.289
215.032	99.6006
217.925	214.568
220.818	233.422
223.71	148.859
226.603	128.974
229.496	114.991
232.388	124.888
235.281	68.3027
238.174	116.201
241.066	144.162
243.959	110.878
246.852	151.99
249.745	49.5557
252.637	33.8184
255.53	67.0664
258.423	109.587
261.315	161.151
264.208	98.8369
267.101	106.466
269.993	128.934
272.886	149.126
275.779	86.6367
278.672	88.04
281.564	106.755
284.457	88.3223
287.35	74.7998
290.242	34.707
293.135	86.9678
296.028	6.45996
298.921	60.7109
301.813	61.9912
304.706	32.0537
307.599	21.084
310.491	99.3027
313.384	16.2549
316.277	25.4023
319.169	4.59863
322.062	3.95117
324.955	9.11133
327.847	51.2227
330.74	16.0039
333.633	26.6104
336.526	84.3311
339.418	26.0957
342.311	22.7646
345.204	1.3584
348.096	141.272
350.989	106.911
353.882	134.859
356.774	134.912
359.667	102.166
362.56	46.1738
365.452	82.8691
368.345	43.5273
371.238	130.074
374.131	171.452
377.023	155.392
379.916	203.558
382.809	168.599
385.701	180.482
388.594	101.77
391.487	143.648
394.38	174.015
397.272	282.437
400.165	223.59
403.058	192.766
405.95	261.206
408.843	180.151
411.736	171.34
414.628	202.788
417.521	141.589
420.414	235.165
423.307	195.26
426.199	217.843
429.092	169.51
431.985	99.5283
434.877	95.6689
437.77	151.344
440.663	80.751
443.555	45.6523
446.448	84.8506
449.341	16.3936
452.234	47.5029
455.126	18.2432
458.019	82.1562
460.912	28.4902
463.804	67.4199
466.697	140.288
469.59	137.357
472.483	82.7822
475.375	118.623
478.268	103.168
481.161	189.504
484.053	188.602
486.946	312.65
489.839	302.435
492.731	421.805
495.624	501.259
498.517	501.526
501.409	561.91
504.302	596.443
507.195	644.269
510.088	715.481
512.98	732.692
515.873	767.858
518.766	727.547
521.658	773.161
524.551	730.86
527.444	798.198
530.337	707.542
533.229	731.194
536.122	738.333
539.015	790.79
541.907	672.042
544.8	644.66
547.693	543.887
550.585	532.468
553.478	371.764
556.371	413.964
559.263	370.498
562.156	324.579
565.049	252.962
567.942	154.466
570.834	164.107
573.727	65.3594
576.62	79.0996
579.512	51.9473
582.405	69.999
585.298	62.1475
588.19	109.075
591.083	52.794
593.976	16.1807
596.869	13.8652
599.761	48.9766
602.654	42.1982
605.547	23.416
608.439	25.8838
611.332	70.2686
614.225	33.2363
617.117	18.2656
620.01	6.39941
622.903	26.5713
625.795	0.668945
628.688	114.5
631.581	47.833
634.474	12.1328
637.366	0.584961
640.259	75.6475
643.152	8.3291
646.044	15.6885
648.937	40.8008
651.83	46.6328
654.722	93.1211
657.615	106.473
660.508	27.5879
663.401	98.8535
666.293	104.486
669.186	116.592
672.079	131.041
674.971	154.49
677.864	140.573
680.757	121.487
683.649	30.709
686.542	65.4062
689.435	48.375
692.328	80.7607
695.22	83.3994
698.113	47.9238
701.006	122.471
703.898	113.095
706.791	159.223
709.684	78.751
712.577	182.837
715.469	169.664
718.362	209.987
721.255	231.955
724.147	228.071
727.04	119.139
729.933	196.894
732.825	214.876
735.718	57.1416
738.611	226.794
741.504	111.407
744.396	187.323
747.289	196.808
750.182	219.406
753.074	244.589
755.967	217.585
758.86	192.231
761.752	275.128
764.645	215.198
767.538	239.95
770.431	268.483
773.323	193.977
776.216	186.983
779.109	129.071
782.001	215.52
784.894	148.55
787.787	142.665
790.679	53.3682
793.572	88.585
796.465	28.0801
799.357	50.3135
802.25	90.9199
805.143	32.3555
808.036	52.7754
810.928	27.7617
813.821	95.6514
816.714	22.2227
819.606	36.3125
822.499	5.90625
825.392	31.6108
828.284	49.2148
831.177	29.7192
834.07	61.0127
836.963	35.3496
839.855	36.2734
842.748	47.1055
845.641	102.442
848.533	66.1152
851.426	61.1211
854.319	50.0649
857.212	61.498
860.104	84.2188
862.997	41.4673
865.89	102.788
868.782	53.7353
871.675	71.3633
874.568	180.175
877.46	122.09
880.353	125.447
883.246	94.3184
886.139	97.4082
889.031	68.2827
891.924	130.361
894.817	59.1992
897.709	108.92
900.602	92.9228
903.495	91.1816
906.388	88.5723
909.28	88.3252
912.173	102.952
915.066	121.971
917.958	34.5991
920.851	77.2632
923.744	102.926
926.636	111.27
929.529	96.7935
932.422	44.6484
935.314	38.6245
938.207	42.3008
941.1	107.955
943.993	92.2329
946.885	21.1475
949.778	39.7949
952.671	68.8066
955.563	58.457
958.456	82.228
961.349	79.4009
964.241	49.1963
967.134	31.6626
970.027	2.2207
972.92	16.4712
975.812	25.1792
978.705	51.5039
981.598	66.7031
984.49	9.79785
987.383	46.1401
990.276	84.1914
993.168	43.0063
996.061	55.2315
998.954	6.40967
1001.85	49.1963
1004.74	75.2051
1007.63	47.7402
1010.52	3.56348
1013.42	74.0288
1016.31	51.6934
1019.2	42.207
1022.1	64.3115
1024.99	55.2588
1027.88	17.8296
1030.77	77.0552
1033.67	23.3311
1036.56	9.97021
1039.45	31.668
1042.34	91.2598
1045.24	33.6758
1048.13	4.45654
1051.02	34.5557
1053.91	107.597
1056.81	69.3311
1059.7	92.9468
1062.59	3.01562
1065.49	64.8281
1068.38	34.8193
1071.27	32.3164
1074.16	114.598
1077.06	70.5332
1079.95	43.3389
1082.84	85.2993
1085.73	5.45019
1088.63	102.333
1091.52	8.60938
1094.41	44.3301
1097.31	71.625
1100.2	88.6231
1103.09	70.2998
1105.98	30.9194
1108.88	13.4648
1111.77	48.4629
1114.66	48.2456
1117.56	70.5972
1120.45	4.63086
1123.34	100.41
1126.23	68.6797
1129.12	143.791
1132.02	46.1519
1134.91	46.248
1137.8	33.6528
1140.7	67.7705
1143.59	84.0571
1146.48	29.7827
1149.37	84.5874
1152.27	31.439
1155.16	95.1626
1158.05	15.7685
1160.94	38.0688
1163.84	74.7964
1166.73	13.4854
1169.62	119.064
1172.52	131.291
1175.41	55.083
1178.3	50.3999
1181.19	56.1416
1184.09	88.3589
1186.98	31.9785
1189.87	26.7622
1192.77	46.6025
1195.66	8.2334
1198.55	88.5523
1201.44	115.282
1204.34	86.2056
1207.23	52.8799
1210.12	50.6597
1213.01	64.6553
1215.91	87.4189
1218.8	50.3394
1221.69	44.4404
1224.58	75.4268
1227.48	100.05
1230.37	32.103
1233.26	70.0166
1236.15	21.5923
1239.05	6.7793
1241.94	0.232422
