Measurement: Raman, 785 nm, unoriented, Raman Data Processed
Mineral: Hawleyite
Rruff sample: R061010
Ideal chemistry: Cd^2+^S^2-^
Locality: Eureka County, Nevada, USA
Source: Michael Scott
Description: Bright yellow-orange fine-grained powder
Raman shift (cm-1)	intensity
180.346	0
183.239	9.39844
186.132	184.281
189.024	293.312
191.917	334.984
194.81	505.18
197.703	614.008
200.595	824.609
203.488	597.949
206.381	281.258
209.273	341.016
212.166	437.508
215.059	915.352
217.951	863.57
220.844	871.578
223.737	620.773
226.63	469.598
229.522	541.703
232.415	766.695
235.308	1044.62
238.2	1178.61
241.093	797.258
243.986	596.617
246.878	232.953
249.771	358.719
252.664	556.309
255.556	764.496
258.449	742.938
261.342	900.215
264.235	616.414
267.127	553.258
270.02	348.289
272.913	232.211
275.805	596.215
278.698	954.918
281.591	996.391
284.484	1044.12
287.376	714.934
290.269	492.375
293.162	225.18
296.054	380.352
298.947	793.844
301.84	1121.92
304.733	1016.52
307.625	1192.73
310.518	569.434
313.411	412.199
316.303	465.988
319.196	417.238
322.089	712.242
324.981	1073.39
327.874	1098.18
330.767	713.512
333.659	460.336
336.552	234.461
339.445	59.3164
342.337	157.609
345.23	460.184
348.123	617.57
351.016	736.738
353.908	498.672
356.801	266.047
359.694	16.5625
362.586	205.004
365.479	66.7031
368.372	446.262
371.264	521.637
374.157	631.012
377.05	444.562
379.943	92.1133
382.835	67.4375
385.728	123.144
388.621	9.33594
391.513	538.668
394.406	568.332
397.299	633.457
400.192	456.574
403.084	407.027
405.977	210.828
408.87	276.945
411.762	531.766
414.655	801.625
417.548	733.231
420.44	784.566
423.333	446.469
426.226	448.379
429.118	388.93
432.011	327.133
434.904	427.094
437.797	616.406
440.689	581.363
443.582	415.469
446.475	354.703
449.367	210.059
452.26	248.59
455.153	109.777
458.046	284.637
460.938	255.055
463.831	437.828
466.724	608.875
469.616	457.195
472.509	276.488
475.402	39.4805
478.294	78.1602
481.187	85.5625
484.08	119.82
486.973	458.629
489.865	359.891
492.758	383.207
495.651	256.812
498.543	142.152
501.436	214.168
504.329	215.051
507.221	189.992
510.114	273.812
513.007	313.129
515.899	400.176
518.792	300.676
521.685	295.664
524.578	280.777
527.47	370.051
530.363	275.594
533.256	441.781
536.148	497.977
539.041	641.231
541.934	375.082
544.827	398.922
547.719	215.418
550.612	200.375
553.505	430.57
556.397	402.606
559.29	466.473
562.183	337.777
565.075	316.082
567.968	128.07
570.861	70.8164
573.754	1.16406
576.646	20.2266
579.539	9.23438
582.432	184.926
585.324	47.4297
588.217	159.234
591.11	111.008
594.002	171.859
596.895	131.125
599.788	332.484
602.681	552.562
605.573	507.699
608.466	446.992
611.359	653.852
614.251	692.84
617.144	552.285
620.037	812.191
622.929	871.156
625.822	786.527
628.715	641.082
631.607	746.691
634.5	719.227
637.393	762.191
640.286	668.594
643.178	635.019
646.071	318.297
648.964	297.891
651.856	405.57
654.749	421.879
657.642	389.215
660.534	300.562
663.427	93.6836
666.32	31.5312
669.213	8.91797
672.105	101.68
674.998	63.9727
677.891	215.637
680.783	114.625
683.676	38.5703
686.569	179.887
689.462	280.188
692.354	300.898
695.247	162.656
698.14	160.731
701.032	17.7109
703.925	35.9336
706.818	16.9883
709.71	105.582
712.603	13.5977
715.496	232.519
718.389	99.9453
721.281	201.457
724.174	155.602
727.067	30.2148
729.959	20.9766
732.852	46.3398
735.745	107.074
738.637	135.277
741.53	218.512
744.423	121.098
747.316	391.305
750.208	369.039
753.101	324.262
755.994	385.332
758.886	249.504
761.779	437.297
764.672	626.031
767.564	537.051
770.457	696.074
773.35	708.461
776.242	599.758
779.135	718.348
782.028	880.34
784.921	1039.12
787.813	1144.41
790.706	1026.43
793.599	793.023
796.491	920.469
799.384	873.688
802.277	867.273
805.169	845.648
808.062	860.285
810.955	949.422
813.848	933.102
816.74	852.945
819.633	709.367
822.526	630.176
825.418	642.41
828.311	660.172
831.204	533.441
834.096	555.953
836.989	594.848
839.882	332.859
842.775	284.348
845.667	383.363
848.56	213.098
851.453	115.566
854.345	268.121
857.238	281.019
860.131	218.84
863.024	136.422
865.916	60.6133
868.809	39.7891
871.702	58.2656
874.594	20.6797
877.487	22.6328
880.38	49.125
883.272	185.551
886.165	176.238
889.058	135.941
891.951	84.6758
894.843	176.258
897.736	96.2227
900.629	204.871
903.521	198.848
906.414	187.254
909.307	347.398
912.199	392.5
915.092	212.711
917.985	192.609
920.877	280.676
923.77	215.621
926.663	310.93
929.556	414.055
932.448	419.453
935.341	223.117
938.234	56.9102
941.126	134.184
944.019	25.0586
946.912	11.207
949.804	75.3789
952.697	164.508
955.59	44.8281
958.482	39.7227
961.375	108.242
964.268	24.8438
967.161	2.42188
970.053	78.1992
972.946	173.867
975.839	265.176
978.731	256.547
981.624	305.223
984.517	148.816
987.409	102.453
990.302	137.758
993.195	89.4805
996.088	223.023
998.98	214.914
1001.87	369.172
1004.77	191.07
1007.66	51.6094
1010.55	27.4414
1013.44	205.019
1016.34	35.707
1019.23	189.566
1022.12	51.3438
1025.02	132.824
1027.91	71.3359
1030.8	7.33594
1033.69	90.8398
1036.59	110.898
1039.48	137.084
1042.37	50.1387
1045.26	269.67
1048.16	47.9863
1051.05	71.8301
1053.94	193.631
1056.83	261.881
1059.73	120.209
1062.62	107.998
1065.51	31.084
1068.4	81.1894
1071.3	179.148
1074.19	215.816
1077.08	189.211
1079.98	187.898
1082.87	77.5371
1085.76	48.6973
1088.65	129.863
1091.55	168.758
1094.44	317.549
1097.33	329.103
1100.22	230.82
1103.12	191.789
1106.01	28.1445
1108.9	182.426
1111.8	194.863
1114.69	264.297
1117.58	210.035
1120.47	147.777
1123.37	183.539
1126.26	98.1992
1129.15	126.6
1132.05	134.754
1134.94	72.3047
1137.83	8.89062
1140.72	3.38477
1143.62	84.1113
1146.51	237.078
1149.4	16.8555
1152.29	44.2754
1155.19	78.9902
1158.08	151.91
1160.97	210.728
1163.86	103.522
1166.76	21.4922
1169.65	242.844
1172.54	125.977
1175.43	92.6953
1178.33	97.6445
1181.22	39.5117
1184.11	62.2949
1187.01	16.9746
1189.9	11.4492
1192.79	146.947
1195.68	48.2402
1198.58	53.125
1201.47	175.975
1204.36	181.68
1207.26	63.3516
1210.15	128.582
1213.04	92.9961
1215.93	104.336
1218.83	103.795
1221.72	116.285
1224.61	11.9551
1227.5	42.8105
1230.4	52.6992
1233.29	157.045
1236.18	110.92
1239.07	220.668
1241.97	233.469
1244.86	0.232422
1247.75	28.0508
1250.64	179.523
1253.54	146.678
1256.43	87.9434
1259.32	71.7109
1262.22	159.303
1265.11	169.443
1268	57.1816
