Measurement: Raman, 532 nm, unoriented, Raman Data Processed
Mineral: Haxonite
Rruff sample: R070034
Ideal chemistry: (Fe,Ni)_23_C_6_
Locality: Egvekinot meteorite, Chukot Province, Russia
Source: Michael Scott
Description: Dark gray metallic fragment embedded in epoxy
Measured chemistry: (Fe_21.57_Ni_1.36_Co_0.07_)_Î£=23_C_6_
Raman shift (cm-1)	intensity
125.112	0
128.487	96.905
131.862	224.242
135.237	73.6244
138.611	202.183
141.986	52.2017
145.361	194.041
148.736	97.0394
152.111	126.528
155.486	145.925
158.86	73.4011
162.235	100.646
165.61	68.7953
168.985	96.7023
172.359	89.5347
175.734	70.2172
179.109	42.402
182.484	57.3864
185.859	84.2303
189.234	177.285
192.608	19.3434
195.983	43.3193
199.358	45.8087
202.733	83.9254
206.108	24.3999
209.482	28.8359
212.857	33.3182
216.232	25.5087
219.607	15.9874
222.982	2.19183
226.357	15.7214
229.731	6.55924
233.106	1.85641
236.481	16.7527
239.856	5.94665
243.231	4.69843
246.605	4.81537
249.98	11.0956
253.355	11.9318
256.73	27.4469
260.105	46.9757
263.479	22.5336
266.854	40.5288
270.229	31.6984
273.604	22.3249
276.979	23.2337
280.353	24.3639
283.728	19.4107
287.103	9.26648
290.478	37.9108
293.853	31.2739
297.228	30.6633
300.602	41.2123
303.977	36.003
307.352	9.89365
310.727	2.79401
314.102	14.1921
317.476	15.0643
320.851	31.5263
324.226	25.0977
327.601	24.1551
330.976	11.8053
334.351	9.10477
337.725	28.0568
341.1	2.70578
344.475	10.4396
347.85	15.1392
351.225	10.9643
354.599	26.9595
357.974	12.0369
361.349	19.1551
364.724	28.0104
368.099	24.7035
371.474	25.3116
374.848	9.02289
378.223	10.2702
381.598	24.4873
384.973	16.2153
388.348	4.83417
391.722	22.9906
395.097	2.34039
398.472	6.25479
401.847	28.7006
405.222	4.93445
408.596	18.673
411.971	11.4682
415.346	3.96658
418.721	18.5432
422.096	16.7337
425.471	20.8335
428.845	1.88187
432.22	9.80176
435.595	8.51172
438.97	12.3209
442.345	21.2629
445.719	10.924
449.094	2.75659
452.469	16.1157
455.844	11.7106
459.219	13.4331
462.593	16.9096
465.968	16.807
469.343	24.6165
472.718	31.286
476.093	9.83304
479.467	26.0626
482.842	2.74063
486.217	22.3511
489.592	8.11908
492.967	28.6578
496.342	19.5272
499.716	20.7812
503.091	12.4219
506.466	11.2644
509.841	22.5053
513.216	8.07873
516.591	9.80301
519.965	2.59552
523.34	21.4092
526.715	26.0204
530.09	10.2199
533.465	7.09772
536.839	20.0467
540.214	10.3639
543.589	7.52475
546.964	8.03097
550.339	28.6857
553.713	16.3394
557.088	23.7536
560.463	34.4766
563.838	3.40549
567.213	34.3222
570.587	14.5572
573.962	27.9987
577.337	25.9018
580.712	9.51358
584.087	7.89294
587.462	24.9338
590.836	12.4278
594.211	14.6756
597.586	31.2409
600.961	6.48444
604.336	24.5106
607.71	9.01987
611.085	12.7479
614.46	2.29358
617.835	15.45
621.21	7.76135
624.585	26.6527
627.959	18.8706
631.334	15.8406
634.709	16.6921
638.084	4.64426
641.459	9.21228
644.833	4.79877
648.208	11.0092
651.583	35.765
654.958	34.8343
658.333	24.1105
661.707	22.7999
665.082	23.5276
668.457	34.5632
671.832	11.5163
675.207	16.6339
678.582	16.2863
681.956	24.5681
685.331	27.1338
688.706	39.053
692.081	9.47183
695.456	22.1538
698.83	21.4553
702.205	17.4519
705.58	18.1268
708.955	18.9099
712.33	18.1052
715.704	26.1175
719.079	21.9022
722.454	28.6837
725.829	29.7357
729.204	30.7916
732.578	13.2502
735.953	27.4471
739.328	19.0031
742.703	17.0263
746.078	25.9982
749.453	30.9481
752.827	25.3242
756.202	13.4423
759.577	11.1974
762.952	18.0593
766.327	12.4738
769.701	20.7319
773.076	7.96152
776.451	21.15
779.826	8.82938
783.201	5.94446
786.576	20.4945
789.95	4.15364
793.325	13.1273
796.7	6.4639
800.075	2.55931
803.45	26.9656
806.824	7.83543
810.199	12.7989
813.574	1.31458
816.949	20.7821
820.324	1.58186
823.698	31.4383
827.073	18.2273
830.448	7.02341
833.823	29.8051
837.198	22.6707
840.572	3.58966
843.947	36.5099
847.322	20.1277
850.697	27.0183
854.072	23.4524
857.447	16.1232
860.821	4.17134
864.196	26.8688
867.571	34.6864
870.946	16.178
874.321	31.224
877.695	22.6808
881.07	27.3263
884.445	48.9918
887.82	7.52885
891.195	8.24835
894.569	5.30273
897.944	28.8949
901.319	40.5748
904.694	22.4899
908.069	33.5177
911.443	32.4387
914.818	29.3526
918.193	13.5398
921.568	26.0458
924.943	33.0717
928.318	28.5654
931.692	22.2187
935.067	2.79059
938.442	21.1431
941.817	15.3231
945.192	20.7724
948.567	7.63083
951.941	8.35361
955.316	9.056
958.691	2.26273
962.066	15.581
965.441	11.9402
968.815	1.42923
972.19	4.79233
975.565	25.5927
978.94	11.5519
982.315	3.70746
985.689	17.1942
989.064	0.544006
992.439	25.4526
995.814	14.6388
999.189	21.4262
1002.56	35.9647
1005.94	4.68854
1009.31	23.3534
1012.69	58.0523
1016.06	26.8366
1019.44	43.9649
1022.81	25.4477
1026.19	35.275
1029.56	7.60657
1032.94	14.2407
1036.31	48.8227
1039.69	53.634
1043.06	40.1684
1046.44	30.9346
1049.81	41.318
1053.19	24.9796
1056.56	17.0932
1059.93	14.8969
1063.31	15.4093
1066.68	9.42493
1070.06	22.6927
1073.43	35.5725
1076.81	6.41901
1080.18	23.2944
1083.56	5.46124
1086.93	25.1587
1090.31	1.51001
1093.68	25.2581
1097.06	7.72928
1100.43	28.0112
1103.81	7.89682
1107.18	1.76227
1110.56	15.7136
1113.93	1.02847
1117.31	31.5912
1120.68	26.4189
1124.06	28.0488
1127.43	38.3529
1130.81	25.1809
1134.18	7.30463
1137.56	8.69037
1140.93	17.1691
1144.31	29.4443
1147.68	4.89987
1151.06	33.6891
1154.43	10.6033
1157.81	12.6886
1161.18	18.0198
1164.56	7.91382
1167.93	16.5462
1171.3	4.17264
1174.68	20.1736
1178.05	21.5255
1181.43	10.1666
1184.8	16.0764
1188.18	19.2291
1191.55	46.6262
1194.93	14.5151
1198.3	30.959
1201.68	16.7894
1205.05	25.8226
1208.43	23.4481
1211.8	24.7314
1215.18	29.1277
1218.55	23.8818
1221.93	21.0479
1225.3	33.6949
1228.68	38.7156
1232.05	8.26608
1235.43	21.6613
1238.8	30.9385
1242.17	29.2674
1245.55	19.9393
1248.92	20.3506
1252.3	45.3995
1255.67	33.1757
1259.05	43.8495
1262.42	10.6194
1265.8	19.3126
1269.17	2.22931
1272.55	45.0291
1275.92	38.1945
1279.3	12.1337
1282.67	4.00385
1286.05	34.5988
1289.42	6.47699
1292.8	10.1212
1296.17	17.301
1299.55	14.7927
