Measurement: Raman, 785 nm, unoriented, Raman Data Processed
Mineral: Haxonite
Rruff sample: R070034
Ideal chemistry: (Fe,Ni)_23_C_6_
Locality: Egvekinot meteorite, Chukot Province, Russia
Source: Michael Scott
Description: Dark gray metallic fragment embedded in epoxy
Measured chemistry: (Fe_21.57_Ni_1.36_Co_0.07_)_Î£=23_C_6_
Raman shift (cm-1)	intensity
66.8305	0
70.2053	8.36323
73.5802	14.0008
76.955	7.28534
80.3298	16.2416
83.7046	16.0286
87.0794	12.2057
90.4542	14.4827
93.829	16.7843
97.2039	15.9969
100.579	31.5748
103.954	1.92758
107.328	25.4448
110.703	200.598
114.078	565.817
117.453	1714.19
120.828	1614.4
124.202	1965.66
127.577	3673.48
130.952	8372.94
134.327	10911.3
137.702	7178.97
141.077	4534.5
144.451	4551.67
147.826	7543.28
151.201	8186.11
154.576	5214.82
157.951	3151.91
161.325	4182.63
164.7	3101.7
168.075	2677.06
171.45	1913.88
174.825	1638.57
178.2	1488.62
181.574	1063.07
184.949	982.197
188.324	906.938
191.699	753.639
195.074	668.731
198.448	566.197
201.823	386.938
205.198	372.755
208.573	271.994
211.948	192.601
215.322	200.007
218.697	175.503
222.072	149.031
225.447	76.2126
228.822	28.1263
232.197	4.06897
235.571	28.5487
238.946	5.73126
242.321	14.0542
245.696	4.14746
249.071	12.5385
252.446	15.829
255.82	60.5256
259.195	9.44269
262.57	8.75598
265.945	12.4628
269.32	6.561
272.694	18.2212
276.069	2.80078
279.444	3.20566
282.819	1.85663
286.194	6.80676
289.568	5.00455
292.943	4.05441
296.318	20.2761
299.693	31.7241
303.068	56.0699
306.443	48.6057
309.817	65.1289
313.192	54.3073
316.567	43.5507
319.942	49.4774
323.317	42.9245
326.692	33.4339
330.066	44.4323
333.441	46.3668
336.816	51.2617
340.191	59.1307
343.566	61.3953
346.94	58.2608
350.315	49.8194
353.69	25.6993
357.065	35.3591
360.44	21.4662
363.815	10.5179
367.189	18.8236
370.564	22.4398
373.939	21.1141
377.314	34.522
380.689	37.8771
384.063	27.0728
387.438	46.1229
390.813	22.9641
394.188	18.0092
397.563	12.9662
400.938	1.06961
404.312	5.79864
407.687	19.1887
411.062	8.43344
414.437	25.1958
417.812	31.0655
421.186	28.9053
424.561	18.28
427.936	18.1045
431.311	13.153
434.686	9.43439
438.06	9.23111
441.435	18.6678
444.81	9.61371
448.185	19.7547
451.56	18.1731
454.935	12.0858
458.309	21.3565
461.684	10.9395
465.059	9.67248
468.434	13.6379
471.809	4.69757
475.183	7.32544
478.558	22.6908
481.933	5.98932
485.308	8.10419
488.683	9.33774
492.058	8.6232
495.432	19.0337
498.807	11.9859
502.182	4.8521
505.557	9.93903
508.932	0.259674
512.307	18.1901
515.681	11.5276
519.056	12.267
522.431	11.8998
525.806	14.3603
529.181	7.71042
532.555	26.1134
535.93	3.56494
539.305	23.4326
542.68	1.52629
546.055	9.95007
549.429	6.7169
552.804	23.6194
556.179	12.3779
559.554	3.6765
562.929	10.4681
566.303	6.41334
569.678	1.00505
573.053	11.9468
576.428	18.1251
579.803	23.6722
583.178	0.924698
586.552	10.4559
589.927	3.04866
593.302	14.6556
596.677	20.5344
600.052	17.1098
603.427	16.2999
606.801	24.1202
610.176	16.7373
613.551	13.5275
616.926	3.06157
620.301	12.2965
623.675	5.63524
627.05	30.7769
630.425	7.54157
633.8	16.1972
637.175	11.7186
640.549	3.7542
643.924	8.34448
647.299	18.0265
650.674	0.799423
654.049	8.92352
657.424	6.17857
660.798	12.0353
664.173	19.6196
667.548	5.54199
670.923	22.977
674.298	10.5115
677.673	10.4431
681.047	31.6381
684.422	19.1722
687.797	17.6959
691.172	10.172
694.547	19.5717
697.921	20.3059
701.296	11.561
704.671	25.2988
708.046	4.90059
711.421	19.2107
714.795	21.1749
718.17	26.8442
721.545	29.3461
724.92	4.6669
728.295	17.131
731.67	0.435608
735.044	23.8026
738.419	7.96011
741.794	12.3315
745.169	29.716
748.544	2.01205
751.918	24.6228
755.293	14.0733
758.668	12.762
762.043	16.1381
765.418	27.2607
768.793	19.9994
772.167	22.3756
775.542	23.6928
778.917	14.8026
782.292	7.32181
785.667	18.75
789.042	19.7854
792.416	12.9599
795.791	10.3998
799.166	9.09921
802.541	4.39682
805.916	5.86018
809.29	38.8202
812.665	13.4231
816.04	27.7007
819.415	15.6565
822.79	20.5473
826.164	8.93411
829.539	15.5452
832.914	16.0811
836.289	7.00565
839.664	14.2472
843.039	16.8344
846.413	0.616608
849.788	2.22553
853.163	3.55774
856.538	15.4597
859.913	20.5994
863.288	15.1999
866.662	23.8552
870.037	14.1114
873.412	11.623
876.787	12.1102
880.162	8.48331
883.536	15.2918
886.911	23.9367
890.286	25.7932
893.661	18.0074
897.036	4.18903
900.41	9.92224
903.785	11.4833
907.16	4.61127
910.535	19.7924
913.91	5.72498
917.284	11.5301
920.659	25.9013
924.034	16.0617
927.409	6.9693
930.784	8.96698
934.159	3.54153
937.534	5.97977
940.908	0.854828
944.283	5.11493
947.658	7.98117
951.033	6.45248
954.408	11.6273
957.782	28.6986
961.157	6.52652
964.532	1.67624
967.907	19.7178
971.282	23.9057
974.657	18.3928
978.031	8.69971
981.406	4.10654
984.781	16.8896
988.156	6.81494
991.531	8.17487
994.905	12.2087
998.28	18.6753
1001.65	1.57526
1005.03	7.89737
1008.4	36.4174
1011.78	7.43622
1015.15	18.6223
1018.53	5.39896
1021.9	31.8848
1025.28	10.2597
1028.65	27.4879
1032.03	23.5063
1035.4	23.7357
1038.78	17.5961
1042.15	12.3685
1045.53	19.1331
1048.9	24.9429
1052.28	0.870148
1055.65	9.86667
1059.03	18.9538
1062.4	23.0176
1065.78	25.5794
1069.15	14.4643
1072.53	10.4673
1075.9	20.5715
1079.28	8.0361
1082.65	25.5883
1086.03	14.4289
1089.4	24.4604
1092.78	33.9276
1096.15	14.3195
1099.53	9.68231
1102.9	2.58954
1106.27	17.3453
1109.65	9.01343
1113.02	11.5879
1116.4	12.0398
1119.77	9.90576
1123.15	10.4131
1126.52	29.0017
1129.9	16.94
1133.27	6.76105
1136.65	20.3701
1140.02	14.647
1143.4	10.5281
1146.77	1.41489
1150.15	22.001
1153.52	12.5449
1156.9	6.09897
1160.27	29.5926
1163.65	3.07733
1167.02	4.27179
1170.4	3.33173
1173.77	13.237
1177.15	21.974
1180.52	24.2535
1183.89	21.2746
1187.27	25.1341
1190.64	8.83594
1194.02	21.0301
1197.39	16.6029
1200.77	12.083
1204.14	9.95468
1207.52	14.2544
1210.89	18.5531
1214.27	12.9558
1217.64	3.61408
1221.02	18.2482
1224.39	9.24683
1227.77	20.7171
1231.14	9.5849
