Measurement: Raman, 532 nm, unoriented, Raman Data Processed
Mineral: Hectorite
Rruff sample: R050134
Ideal chemistry: Na_0.3_(Mg,Li)_3_Si_4_O_10_(OH)_2_
Locality: Hector, California, USA
Source: University of Arizona Mineral Museum
Description: Compacted aggregate of fine-grained material
Raman shift (cm-1)	intensity
149.328	0
152.221	141.238
155.114	356.336
158.006	490.07
160.899	255.191
163.792	344.691
166.684	713.07
169.577	630.09
172.47	747.863
175.363	646.238
178.255	698.117
181.148	1049.11
184.041	895.676
186.933	945.852
189.826	674.391
192.719	702.543
195.611	552.269
198.504	175.711
201.397	262.82
204.29	216.508
207.182	71.3242
210.075	145.363
212.968	175.234
215.86	96.2305
218.753	122.164
221.646	178.809
224.538	50.9219
227.431	120.086
230.324	103.863
233.216	182.641
236.109	131.516
239.002	427.504
241.894	231.188
244.787	275.328
247.68	60.0664
250.573	136.953
253.465	277.07
256.358	461.531
259.251	359.363
262.143	305.523
265.036	337.734
267.929	467.801
270.822	475.453
273.714	531.672
276.607	608.852
279.5	487.367
282.392	498.621
285.285	466.566
288.178	508.586
291.07	469.871
293.963	592.484
296.856	605.59
299.748	427.492
302.641	408.824
305.534	274.965
308.427	287.328
311.319	525.223
314.212	413.391
317.105	375.59
319.997	408.219
322.89	464.82
325.783	430.699
328.675	234.379
331.568	375.164
334.461	291.824
337.354	316.062
340.246	454.816
343.139	437.562
346.032	493.84
348.924	562.727
351.817	355.223
354.71	639.699
357.603	460.672
360.495	527.812
363.388	292.203
366.281	202.203
369.173	107.879
372.066	96.8203
374.959	102.477
377.851	43.4531
380.744	30.6523
383.637	142.231
386.529	194.074
389.422	318.144
392.315	387.562
395.208	13.0039
398.1	268.856
400.993	185.945
403.886	25.2305
406.778	33.1641
409.671	141.586
412.564	233.016
415.457	123.617
418.349	203.805
421.242	318.973
424.135	214.707
427.027	220.711
429.92	85.0938
432.813	186.535
435.705	33.4648
438.598	263.5
441.491	92.957
444.384	156.609
447.276	52.5391
450.169	31.8359
453.062	166.996
455.954	206.07
458.847	80.9805
461.74	101.234
464.632	67.918
467.525	62.0352
470.418	87.7188
473.31	220
476.203	141.945
479.096	178.699
481.989	134.879
484.881	102.336
487.774	31.0078
490.667	295.926
493.559	214.09
496.452	123.406
499.345	19.5508
502.238	67.6602
505.13	173.68
508.023	67.6719
510.916	107.621
513.808	109.613
516.701	175.785
519.594	15.4453
522.486	69.9648
525.379	5.18359
528.272	5.63672
531.164	168.82
534.057	108.695
536.95	278.606
539.843	120.043
542.735	168.543
545.628	169.715
548.521	103.613
551.413	453.019
554.306	364.863
557.199	266.184
560.091	10.9102
562.984	166.367
565.877	186.898
568.77	107.113
571.662	119.301
574.555	48.3047
577.448	316.32
580.34	370.695
583.233	302.144
586.126	449.66
589.018	197.027
591.911	232.695
594.804	13.8633
597.697	46.8438
600.589	59.5391
603.482	284.203
606.375	95.9531
609.267	5.76953
612.16	34.543
615.053	23.0625
617.945	34.7305
620.838	28.3242
623.731	135.824
626.624	149.086
629.516	206.984
632.409	159.535
635.302	75.1016
638.194	72.9961
641.087	17.1406
643.98	71.4141
646.872	152.973
649.765	97.2305
652.658	259.891
655.551	202.211
658.443	238.18
661.336	315.676
664.229	253.5
667.121	416.07
670.014	236.398
672.907	242.121
675.799	454.242
678.692	602.062
681.585	563.566
684.477	811.367
687.37	866.996
690.263	833.883
693.156	651.453
696.048	540.203
698.941	318.422
701.834	397.816
704.726	198.754
707.619	312.562
710.512	189.551
713.404	237.82
716.297	143.781
719.19	162.019
722.083	89.8945
724.975	134.172
727.868	174.93
730.761	23.9648
733.653	87.8281
736.546	52.0508
739.439	65.8164
742.332	110.82
745.224	20.4727
748.117	61.6172
751.01	170.699
753.902	127.102
756.795	16.0859
759.688	171.988
762.58	36.543
765.473	160.019
768.366	198.805
771.259	249.754
774.151	162.832
777.044	129.16
779.937	65.3789
782.829	14.1797
785.722	85.0938
788.615	361.492
791.507	313.082
794.4	357.578
797.293	138.465
800.186	132.695
803.078	17.0508
805.971	251.668
808.864	114.184
811.756	137.477
814.649	242.441
817.542	96.9648
820.434	38.0039
823.327	100.766
826.22	125.543
829.112	246.981
832.005	236.43
834.898	338.379
837.791	305.254
840.683	268.164
843.576	168.062
846.469	94.4062
849.361	107.184
852.254	64.4258
855.147	115.836
858.039	109.473
860.932	216.488
863.825	185.387
866.718	176.715
869.61	34.1055
872.503	117.582
875.396	134.113
878.288	126.723
881.181	128.586
884.074	210.223
886.966	159.231
889.859	104.715
892.752	92.5078
895.645	54.0781
898.537	143.606
901.43	117.82
904.323	79.7617
907.215	190.848
910.108	105.309
913.001	109.481
915.894	292.824
918.786	105.981
921.679	258.891
924.572	129.387
927.464	60.168
930.357	1.30469
933.25	5.94531
936.142	134.539
939.035	70.7969
941.928	136.637
944.821	79.7422
947.713	111.949
950.606	22.7969
953.499	158.418
956.391	98.7734
959.284	114.781
962.177	72.2344
965.069	56.0938
967.962	86.9414
970.855	63.7656
973.747	81.0586
976.64	77.1562
979.533	15.2344
982.426	229.414
985.318	206.816
988.211	283.258
991.104	205.144
993.996	40.5938
996.889	44.7734
999.782	68.1523
1002.67	212.637
1005.57	262.148
1008.46	86.8164
1011.35	93.9102
1014.25	114.287
1017.14	103.176
1020.03	111.188
1022.92	33.5469
1025.82	147.502
1028.71	175.082
1031.6	118.414
1034.49	16.1992
1037.39	22.3809
1040.28	105.945
1043.17	191.106
1046.07	159.244
1048.96	38.9492
1051.85	127.715
1054.74	63.3613
1057.64	33.041
1060.53	71.6406
1063.42	175.018
1066.31	151.191
1069.21	47.7988
1072.1	71.9356
1074.99	112.422
1077.88	150.344
1080.78	103.832
1083.67	98.0449
1086.56	197.898
1089.45	118.072
1092.35	252.787
1095.24	109.586
1098.13	26.791
1101.03	108.861
1103.92	77.0742
1106.81	132.705
1109.7	229.578
1112.6	220.334
1115.49	135.008
1118.38	22.416
1121.28	72.7656
1124.17	92.4375
1127.06	41.4277
1129.95	22.1211
1132.85	55.3262
1135.74	62.5977
1138.63	128.707
1141.52	100.713
1144.42	118.15
1147.31	21.1328
1150.2	121.322
1153.1	185.975
1155.99	126.428
1158.88	166.254
1161.77	147.486
1164.67	146.678
1167.56	177.291
1170.45	169.889
1173.34	176.346
1176.24	92.2852
1179.13	191.328
1182.02	235.059
1184.91	108.918
1187.81	117.213
1190.7	106.697
1193.59	24.0918
1196.48	140.166
1199.38	203.652
1202.27	255.279
1205.16	245.67
1208.06	137.469
1210.95	95.2402
1213.84	60.7734
1216.73	120.924
1219.63	120.172
1222.52	70.2207
1225.41	27.6211
1228.31	15.8164
1231.2	133.166
1234.09	120.439
1236.98	29.4062
1239.88	176.256
1242.77	66.1836
1245.66	83.8535
1248.55	83.0019
1251.45	103.072
1254.34	80.4922
1257.23	6.16406
1260.12	134.682
1263.02	54.2734
1265.91	134.346
1268.8	47.7715
1271.7	87.9531
1274.59	26.582
1277.48	135.441
1280.37	167.303
1283.27	23.75
1286.16	29.1387
1289.05	142.295
1291.94	149.644
1294.84	94.2637
1297.73	81.668
1300.62	128.832
