Measurement: Raman, 780 nm, unoriented, Raman Data Processed
Mineral: Hedenbergite
Rruff sample: R060040
Ideal chemistry: CaFe^2+^Si_2_O_6_
Locality: Rio Marina, Elba, Italy
Source: University of Arizona Mineral Museum
Description: Radial aggregate of green thin bladed crystals
Measured chemistry: Ca_1.00_(Fe^2+^_0.89_Mg_0.09_Mn_0.02_)_Î£=1_Si_2.00_O_6_
Raman shift (cm-1)	intensity
93.9705	0
97.3453	11.5267
100.72	0.277832
104.095	3.0979
107.47	19.0792
110.845	12.0718
114.219	5.09827
117.594	26.1971
120.969	43.5962
124.344	78.4182
127.719	106.189
131.094	82.1407
134.468	24.1201
137.843	6.87897
141.218	7.18927
144.593	2.10928
147.968	2.44464
151.342	0.282959
154.717	11.4678
158.092	24.3681
161.467	27.3373
164.842	36.4357
168.216	47.2906
171.591	57.4347
174.966	70.8256
178.341	81.3445
181.716	91.7443
185.09	86.5519
188.465	83.2695
191.84	75.4763
195.215	63.7817
198.59	46.0393
201.965	31.4269
205.339	21.5171
208.714	14.1754
212.089	10.8417
215.464	9.72327
218.839	8.57852
222.214	10.4092
225.588	11.2211
228.963	15.3376
232.338	23.3161
235.713	24.703
239.088	23.459
242.462	20.9783
245.837	17.0882
249.212	16.791
252.587	13.3584
255.962	9.91373
259.336	8.3233
262.711	5.47519
266.086	4.31058
269.461	0.795502
272.836	1.42096
276.211	1.75916
279.585	0.16571
282.96	0.09613
286.335	0.411774
289.71	4.33496
293.085	8.23273
296.459	11.4815
299.834	18.8152
303.209	25.3356
306.584	33.1205
309.959	34.4089
313.334	27.8492
316.708	18.5695
320.083	11.6578
323.458	7.5249
326.833	6.06174
330.207	6.38882
333.582	4.86368
336.957	5.32349
340.332	6.62064
343.707	7.53728
347.082	2.36346
350.456	1.24979
353.831	2.96069
357.206	7.79808
360.581	14.0303
363.956	20.3277
367.33	30.2539
370.705	40.7112
374.08	51.3261
377.455	51.5315
380.83	40.5256
384.205	25.3004
387.579	13.3829
390.954	6.83427
394.329	1.55174
397.704	0.247116
401.079	0.949783
404.453	0.646759
407.828	1.51119
411.203	0.188492
414.578	0.950974
417.953	1.13264
421.327	4.58521
424.702	2.0901
428.077	5.94849
431.452	4.30983
434.827	5.83784
438.202	7.40828
441.576	7.21336
444.951	7.60953
448.326	7.83249
451.701	8.67998
455.076	9.86551
458.45	7.66585
461.825	7.28015
465.2	4.09334
468.575	3.40888
471.95	2.53255
475.325	1.7164
478.699	2.38127
482.074	3.35242
485.449	3.70697
488.824	6.37332
492.199	9.81665
495.573	13.2858
498.948	16.3039
502.323	18.5553
505.698	20.0336
509.073	24.8088
512.447	27.1937
515.822	29.0635
519.197	33.3018
522.572	33.727
525.947	30.6183
529.322	33.2342
532.696	32.2383
536.071	28.9827
539.446	30.1327
542.821	32.7407
546.196	33.4981
549.57	34.2769
552.945	35.6136
556.32	35.2396
559.695	31.7938
563.07	26.3717
566.444	19.3894
569.819	14.5731
573.194	10.7842
576.569	7.02287
579.944	3.44481
583.319	1.71214
586.693	0.770996
590.068	0.510666
593.443	0.270782
596.818	1.54709
600.193	0.469116
603.567	0.000244
606.942	0.646408
610.317	0.600159
613.692	1.21231
617.067	1.61371
620.442	2.57069
623.816	4.44139
627.191	4.97865
630.566	5.8176
633.941	9.16438
637.316	11.6649
640.69	13.9227
644.065	20.888
647.44	29.2856
650.815	41.9626
654.19	56.9943
657.564	82.2969
660.939	100.595
664.314	90.0601
667.689	59.0751
671.064	34.5459
674.439	23.2919
677.813	16.5144
681.188	12.9543
684.563	10.5671
687.938	7.72852
691.313	7.99715
694.688	6.38074
698.062	5.1743
701.437	3.60373
704.812	2.59181
708.187	2.99991
711.562	1.38803
714.936	0.955597
718.311	1.17149
721.686	0.149902
725.061	0.44104
728.436	0.973572
731.81	0.469101
735.185	0.305161
738.56	0.364914
741.935	1.21184
745.31	0.009995
748.684	0.23761
752.059	1.60411
755.434	0.054077
758.809	0.052811
762.184	1.28563
765.559	0.12561
768.933	1.4671
772.308	1.30112
775.683	1.68196
779.058	2.92337
782.433	1.77245
785.808	1.74515
789.182	2.21675
792.557	2.00563
795.932	2.28787
799.307	0.841553
802.682	1.20557
806.056	2.71289
809.431	2.64171
812.806	2.21489
816.181	3.22939
819.556	3.00533
822.93	3.84715
826.305	2.81778
829.68	0.908554
833.055	0.697311
836.43	1.54898
839.804	3.46037
843.179	1.99026
846.554	4.49142
849.929	7.43463
853.304	9.60539
856.679	8.98789
860.053	5.42291
863.428	4.81624
866.803	1.73781
870.178	2.46515
873.553	1.52298
876.927	1.57812
880.302	1.50406
883.677	2.25887
887.052	1.8945
890.427	3.74678
893.802	4.47205
897.176	3.81007
900.551	3.92061
903.926	5.35486
907.301	5.39514
910.676	7.27701
914.05	7.89792
917.425	7.61467
920.8	7.28932
924.175	6.76636
927.55	7.09694
930.924	4.57318
934.299	3.06015
937.674	1.27399
941.049	0.509827
944.424	0.797592
947.799	0.78743
951.173	0.592316
954.548	0.136505
957.923	0.859268
961.298	0.630005
964.673	0.948456
968.047	0.743591
971.422	2.03961
974.797	3.38135
978.172	2.51054
981.547	1.22256
984.922	1.50397
988.296	2.32594
991.671	3.58142
995.046	7.59233
998.421	12.4209
1001.8	21.1668
1005.17	34.2617
1008.54	57.6128
1011.92	89.7965
1015.29	93.455
1018.67	52.8038
1022.04	29.2042
1025.42	23.5607
1028.79	20.0627
1032.17	19.656
1035.54	21.5624
1038.92	20.6968
1042.29	18.567
1045.67	17.6514
1049.04	16.3126
1052.42	13.9968
1055.79	11.4835
1059.17	9.18619
1062.54	7.12654
1065.92	7.58327
1069.29	6.81252
1072.67	5.54899
1076.04	7.21952
1079.42	5.35535
1082.79	4.38895
1086.17	3.341
1089.54	2.82295
1092.92	3.41889
1096.29	2.0613
1099.66	3.46499
1103.04	1.77586
1106.41	1.26484
1109.79	1.28243
1113.16	2.1219
1116.54	1.42862
1119.91	0.549988
1123.29	1.45595
1126.66	0.020096
1130.04	0.473022
1133.41	0.332886
1136.79	0.116135
1140.16	0.221001
1143.54	0.127686
1146.91	0.340034
1150.29	0.17347
1153.66	0.237297
1157.04	0.836594
1160.41	0.79776
1163.79	1.43388
1167.16	1.98898
1170.54	1.15634
1173.91	2.34489
1177.29	3.02476
1180.66	2.4135
1184.04	2.69705
1187.41	2.75555
1190.79	3.26923
1194.16	3.42481
1197.54	3.56872
1200.91	3.01022
1204.28	3.21242
1207.66	3.38798
1211.03	2.33408
1214.41	2.53198
1217.78	1.56211
1221.16	2.09287
1224.53	1.57914
1227.91	1.78445
1231.28	1.20859
1234.66	1.74939
1238.03	0.572029
1241.41	3.94165
1244.78	2.36263
1248.16	0.318336
1251.53	0.029747
1254.91	0.669342
1258.28	0.700272
1261.66	1.12846
1265.03	0.010986
1268.41	0.689743
1271.78	0.323357
1275.16	1.10102
1278.53	0.170601
1281.9	1.0051
