Measurement: Raman, 780 nm, unoriented, Raman Data Processed
Mineral: Hedleyite
Rruff sample: R100114
Ideal chemistry: Bi_7_Te_3_
Locality: Good Hope mine, Hedley, British Columbia, Canada
Source: Robert Woodside
Description: Tin-white platy masses
Raman shift (cm-1)	intensity
151.994	0
154.887	2.18309
157.78	2.00087
160.673	2.26403
163.565	1.83215
166.458	2.45983
169.351	0.119854
172.243	3.55312
175.136	3.19531
178.029	0.240618
180.921	3.15299
183.814	1.40628
186.707	3.03152
189.6	1.23614
192.492	2.23991
195.385	1.52508
198.278	0.975494
201.17	0.970789
204.063	0.753498
206.956	0.277914
209.848	1.06262
212.741	0.248857
215.634	1.11725
218.526	1.16409
221.419	2.75137
224.312	3.72551
227.204	3.05516
230.097	3.31658
232.99	1.65975
235.883	1.33149
238.775	1.73
241.668	0.747709
244.561	0.994497
247.453	2.00736
250.346	1.54347
253.239	2.36046
256.132	0.99922
259.024	1.38779
261.917	0.786818
264.81	1.0582
267.702	1.26751
270.595	0.563417
273.488	2.39896
276.38	2.49227
279.273	1.97674
282.166	1.2723
285.058	2.33133
287.951	1.51547
290.844	0.716837
293.737	0.814398
296.629	1.52592
299.522	1.29895
302.415	1.62988
305.307	2.75204
308.2	1.73148
311.093	0.969755
313.986	0.408318
316.878	2.4131
319.771	0.633221
322.664	1.62877
325.556	2.92819
328.449	2.28135
331.342	2.50821
334.234	2.48269
337.127	1.02012
340.02	3.10534
342.913	1.03361
345.805	1.32224
348.698	0.465128
351.591	1.64751
354.483	1.57002
357.376	0.675907
360.269	0.060169
363.161	1.57551
366.054	0.970488
368.947	1.44823
371.839	2.30676
374.732	2.27654
377.625	1.08883
380.517	0.974924
383.41	0.91659
386.303	1.05191
389.196	1.46865
392.088	0.4228
394.981	1.34169
397.874	0.77466
400.766	0.997247
403.659	0.3043
406.552	2.00752
409.445	2.04058
412.337	2.84923
415.23	0.735116
418.123	3.15061
421.015	0.493419
423.908	1.1011
426.801	2.75286
429.693	0.782485
432.586	0.069857
435.479	1.06842
438.372	1.81923
441.264	3.23302
444.157	1.96041
447.05	2.66794
449.942	0.867842
452.835	1.37867
455.728	0.763309
458.62	1.57042
461.513	3.89083
464.406	1.91313
467.298	1.41288
470.191	0.025835
473.084	2.19272
475.977	1.57689
478.869	0.317164
481.762	2.3493
484.655	2.01732
487.547	2.64807
490.44	1.30296
493.333	1.26638
496.226	0.865983
499.118	1.10878
502.011	1.81053
504.904	1.33178
507.796	0.042633
510.689	1.649
513.582	3.22458
516.474	0.909142
519.367	0.971978
522.26	1.05306
525.153	1.9957
528.045	1.41717
530.938	2.26062
533.831	1.03244
536.723	0.85218
539.616	1.2257
542.509	2.68228
545.401	1.8703
548.294	0.28357
551.187	2.23494
554.079	1.45737
556.972	0.867923
559.865	0.835969
562.758	0.918776
565.65	2.15793
568.543	2.16931
571.436	0.542265
574.328	0.042001
577.221	1.15641
580.114	2.02458
583.006	1.25081
585.899	0.322498
588.792	1.03299
591.684	1.58328
594.577	2.39087
597.47	1.88603
600.363	1.54817
603.255	2.69572
606.148	1.89842
609.041	1.99046
611.933	2.10925
614.826	1.39864
617.719	2.50595
620.611	0.630724
623.504	0.592628
626.397	2.15826
629.29	3.0665
632.182	0.766681
635.075	1.10446
637.968	2.43134
640.86	1.7002
643.753	0.013221
646.646	1.31882
649.538	0.436875
652.431	2.29573
655.324	1.90928
658.217	1.22018
661.109	1.77347
664.002	1.91919
666.895	1.3076
669.787	0.553938
672.68	0.79381
675.573	1.40957
678.466	0.850488
681.358	1.41712
684.251	1.14959
687.144	1.4911
690.036	0.715212
692.929	1.91754
695.822	0.901779
698.714	1.59254
701.607	1.55666
704.5	1.8984
707.393	2.41373
710.285	0.307634
713.178	2.00208
716.071	1.07793
718.963	0.266531
721.856	1.82733
724.749	2.87779
727.641	1.2991
730.534	0.013855
733.427	1.82332
736.319	0.245329
739.212	1.23637
742.105	2.37223
744.997	1.23068
747.89	1.79846
750.783	0.541193
753.676	0.759743
756.568	2.9542
759.461	0.623592
762.354	1.38395
765.246	2.57288
768.139	1.52223
771.032	0.630558
773.924	0.164009
776.817	1.70949
779.71	1.89683
782.603	0.508717
785.495	1.18082
788.388	2.32694
791.281	2.64835
794.173	1.07363
797.066	2.27043
799.959	0.72253
802.851	0.884346
805.744	3.62113
808.637	2.51815
811.529	1.81355
814.422	2.59657
817.315	2.42376
820.208	2.78217
823.1	2.59318
825.993	3.40826
828.886	2.84007
831.778	3.04687
834.671	2.76757
837.564	2.00028
840.457	2.73791
843.349	3.07585
846.242	2.30024
849.135	3.06286
852.027	3.32469
854.92	4.11324
857.813	1.70215
860.705	2.10519
863.598	4.31371
866.491	2.33671
869.384	2.18005
872.276	3.04111
875.169	0.449205
878.062	2.54482
880.954	2.00042
883.847	2.34818
886.74	1.10003
889.632	1.34105
892.525	2.03316
895.418	1.05995
898.311	0.329801
901.203	0.946105
904.096	0.070963
906.989	0.57493
909.881	0.123465
912.774	1.07835
915.667	0.416542
918.559	0.216296
921.452	1.55728
924.345	1.44426
927.237	0.277969
930.13	0.438828
933.023	1.07568
935.916	1.03208
938.808	3.12809
941.701	1.69386
944.594	0.316365
947.486	1.04023
950.379	2.9221
953.272	1.77913
956.164	1.70521
959.057	1.59326
961.95	2.45079
964.842	1.21833
967.735	2.45011
970.628	0.020419
973.521	1.28487
976.413	0.520659
979.306	1.47963
982.199	0.364465
985.091	2.54977
987.984	0.363963
990.877	0.550886
993.769	1.9341
996.662	4.56569
999.555	2.3172
1002.45	1.17193
1005.34	0.364003
1008.23	2.74058
1011.13	3.04224
1014.02	2.05975
1016.91	2.78104
1019.8	3.05129
1022.7	2.41643
1025.59	0.778089
1028.48	3.68174
1031.38	1.81083
1034.27	2.16336
1037.16	0.754522
1040.05	2.27385
1042.94	1.0877
1045.84	0.203592
1048.73	1.27972
1051.62	1.52872
1054.52	0.914495
1057.41	1.89917
1060.3	2.00993
1063.19	2.07187
1066.09	2.60744
1068.98	0.615124
1071.87	2.23458
1074.77	3.39773
1077.66	2.61638
1080.55	0.833564
1083.44	2.96301
1086.34	0.036125
1089.23	0.892406
1092.12	0.589983
1095.01	2.00373
1097.91	1.05228
1100.8	1.00698
1103.69	1.31677
1106.59	0.879751
1109.48	0.942225
1112.37	2.55708
1115.26	1.97195
1118.16	2.08142
1121.05	3.13703
1123.94	0.562945
1126.83	2.50179
1129.73	1.5147
1132.62	0.316934
1135.51	2.3127
1138.4	0.047056
1141.3	0.8709
1144.19	0.225876
1147.08	2.09078
1149.97	1.60719
1152.87	1.36399
1155.76	1.67951
1158.65	2.8942
1161.55	3.1631
1164.44	1.14589
1167.33	3.29969
1170.22	0.558157
1173.12	1.43272
1176.01	2.24197
1178.9	2.70032
1181.8	2.40268
1184.69	0.872453
1187.58	2.72237
1190.47	2.15415
1193.37	2.18379
1196.26	2.86235
1199.15	1.1807
1202.04	1.65675
1204.94	1.09684
1207.83	2.00668
1210.72	0.058831
1213.62	1.78247
1216.51	1.49852
1219.4	2.63524
1222.29	2.21948
1225.18	0.621137
1228.08	1.95382
1230.97	2.1008
1233.86	3.02929
1236.76	1.86077
1239.65	1.36475
1242.54	3.78744
1245.43	0.603518
1248.33	1.49118
1251.22	2.08327
1254.11	3.1682
1257.01	1.17551
1259.9	1.46045
1262.79	0.877563
1265.68	1.02446
1268.58	1.94624
1271.47	0.881684
1274.36	0.447951
1277.25	0.30135
1280.15	0.891437
1283.04	1.89849
