Measurement: Raman, 785 nm, unoriented, Raman Data Processed
Mineral: Hellandite-(Ce)
Rruff sample: R061013
Ideal chemistry: (Ca,REE)_4_Ce_2_Al[box]_2_(B_4_Si_4_O_22_)(OH)_2_
Locality: Campo Pefella, near Capranica, Viterbo, Latium, Italy
Source: Michael Scott
Description: Pale yellow platy crystals
Raman shift (cm-1)	intensity
178.9	0
181.793	89.3301
184.685	93.9707
187.578	5.01758
190.471	35.7656
193.363	131.197
196.256	545.294
199.149	864.641
202.042	1364.73
204.934	1724.61
207.827	2061.39
210.72	2289.45
213.612	2496.16
216.505	2707.37
219.398	2841.74
222.291	3057.16
225.183	3133.7
228.076	3245.88
230.969	3367.56
233.861	3411.94
236.754	2982.56
239.647	2025.9
242.539	1384.38
245.432	1209.67
248.325	1164.86
251.218	1279.16
254.11	1428.05
257.003	1486.18
259.896	1423.93
262.788	1262.22
265.681	939.587
268.574	621.157
271.466	246.269
274.359	1.26367
277.252	208.343
280.144	105.539
283.037	52.0039
285.93	509.341
288.823	954.208
291.715	1431.33
294.608	1781.41
297.501	2424.46
300.393	3064
303.286	3993.86
306.179	4894.62
309.072	5918.11
311.964	6892.02
314.857	8133.81
317.75	8936.03
320.642	9376.44
323.535	10002.6
326.428	10733.5
329.32	11305.4
332.213	12103.9
335.106	12401.9
337.998	12495.7
340.891	12454.8
343.784	12285
346.677	11826.9
349.569	11069.4
352.462	9972.99
355.355	8749.48
358.247	7481.24
361.14	6286.41
364.033	5188.13
366.925	4125.16
369.818	3093.9
372.711	2192.51
375.604	1389.16
378.496	863.388
381.389	315.396
384.282	59.3535
387.174	108.902
390.067	158.835
392.96	188.903
395.853	107.084
398.745	13.5615
401.638	227.323
404.531	553.215
407.423	1039.24
410.316	1731.89
413.209	2501.26
416.101	3417.58
418.994	4039.58
421.887	4444.6
424.779	4374.12
427.672	4000.18
430.565	3456.91
433.458	2982.62
436.35	2572.88
439.243	2410.1
442.136	2254.48
445.028	1966.6
447.921	1866.81
450.814	1866.31
453.707	2057.79
456.599	2339.09
459.492	2772.98
462.385	3294.78
465.277	3740.28
468.17	3989.6
471.063	4031.32
473.955	3658.94
476.848	3246.64
479.741	2686.1
482.634	2326.26
485.526	1899.27
488.419	1696.15
491.312	1291.25
494.204	1031.83
497.097	601.497
499.99	342.222
502.882	56.9023
505.775	61.124
508.668	126.014
511.56	76.4853
514.453	52.5654
517.346	24.9092
520.239	238.786
523.131	337.35
526.024	676.763
528.917	978.538
531.809	1447.24
534.702	1952.91
537.595	2447.9
540.487	2868.18
543.38	3139.88
546.273	3336.12
549.166	3441.96
552.058	3485.48
554.951	3306.68
557.844	3142.08
560.736	3038.41
563.629	2956.45
566.522	2794.39
569.414	2587.14
572.307	2141.16
575.2	1656.94
578.093	1176.55
580.985	871.565
583.878	434.098
586.771	180.011
589.663	86.0859
592.556	197.797
595.449	174.518
598.341	184.502
601.234	41.8672
604.127	297.266
607.02	548.532
609.912	906.757
612.805	1246.89
615.698	1506.57
618.59	1797.91
621.483	2065.65
624.376	2297.17
627.269	2553.05
630.161	2704.22
633.054	2934.87
635.947	3069.14
638.839	3200.03
641.732	3284.34
644.625	3277.37
647.517	3393.65
650.41	3372.97
653.303	3338.71
656.196	3381.59
659.088	3423.25
661.981	3326.37
664.874	3287.56
667.766	3261.8
670.659	3224.28
673.552	3090.97
676.444	3126.06
679.337	2996.53
682.23	2775.4
685.122	2561.74
688.015	2397.53
690.908	2207.24
693.801	2082.86
696.693	2010.89
699.586	1938.23
702.479	1762.73
705.371	1611.13
708.264	1478.63
711.157	1380.26
714.049	1257.99
716.942	1159.08
719.835	981.84
722.728	919.492
725.62	774.188
728.513	776.03
731.406	601.359
734.298	521.423
737.191	426.754
740.084	361.219
742.976	220.398
745.869	42.876
748.762	109.706
751.655	150.238
754.547	194.57
757.44	240.19
760.333	137.72
763.225	97.0664
766.118	22.1953
769.011	104.717
771.904	265.529
774.796	321.22
777.689	482.988
780.582	629.925
783.474	798.829
786.367	959.063
789.26	1029.28
792.152	955.654
795.045	935.788
797.938	823.427
800.831	817.391
803.723	766.484
806.616	801.433
809.509	943.603
812.401	1060.25
815.294	1249.14
818.187	1524.16
821.079	1650.34
823.972	1980.34
826.865	2252.07
829.757	2434.39
832.65	2706.5
835.543	2939.68
838.436	3315.34
841.328	3597.79
844.221	3862.54
847.114	4250.13
850.006	4434.38
852.899	4479.09
855.792	4351.72
858.684	4083.1
861.577	3830.37
864.47	3581.16
867.362	3306.56
870.255	3127.5
873.148	2923.6
876.041	2748.55
878.933	2583.75
881.826	2441.51
884.719	2259.81
887.611	2099.57
890.504	2001.38
893.397	1845.39
896.29	1692.74
899.182	1650.73
902.075	1612.87
904.968	1644.96
907.86	1582.06
910.753	1610.29
913.646	1531.93
916.538	1315.42
919.431	1039.66
922.324	651.764
925.217	387.033
928.109	183.333
931.002	15.9331
933.895	93.8486
936.787	133.591
939.68	194.574
942.573	229.976
945.466	208.65
948.358	209.375
951.251	261.422
954.144	98.5107
957.036	101.283
959.929	69.6909
962.822	99.416
965.714	100.487
968.607	269.224
971.5	522.565
974.393	578.648
977.285	957.251
980.178	1255.25
983.071	1640.26
985.963	2165.97
988.856	2720.49
991.749	3442.06
994.641	4445.61
997.534	5665.64
1000.43	7326.27
1003.32	9176.87
1006.21	11358.1
1009.11	13803.9
1012	16118.3
1014.89	18533.2
1017.78	20878
1020.68	22795
1023.57	24285
1026.46	25459
1029.35	26129
1032.25	26231.6
1035.14	26251.2
1038.03	25508.5
1040.92	24564.7
1043.82	23129
1046.71	21664.8
1049.6	20046.7
1052.49	18392.7
1055.39	16748
1058.28	15317.7
1061.17	13656
1064.07	12331.5
1066.96	11015.2
1069.85	9836.55
1072.74	8821.28
1075.64	7842.64
1078.53	6958.63
1081.42	6042.35
1084.32	5324.65
1087.21	4600.86
1090.1	3868.15
1092.99	3388.19
1095.89	2755.87
1098.78	2110.2
1101.67	1612.07
1104.56	1136.91
1107.46	650.499
1110.35	454.216
1113.24	207.008
1116.13	7.14356
1119.03	256.643
1121.92	277.685
1124.81	186.292
1127.71	161.669
1130.6	16.7295
1133.49	88.4785
1136.38	216.807
1139.28	450.644
1142.17	466.312
1145.06	532.591
1147.95	554.829
1150.85	534.988
1153.74	436.052
1156.63	447.969
1159.53	406.788
1162.42	373.516
1165.31	298.448
1168.2	245.79
1171.1	202.775
1173.99	138.685
1176.88	6.01074
1179.77	60.5986
1182.67	130.564
1185.56	311.21
1188.45	300.309
1191.35	227.058
1194.24	198.83
1197.13	96.9912
1200.02	115.733
1202.92	256.844
1205.81	623.432
1208.7	1102.56
1211.59	1748.74
1214.49	2604.3
1217.38	3567.18
1220.27	4616.39
1223.16	5671.22
1226.06	6428.61
1228.95	6832.41
1231.84	7318.92
1234.73	7318.16
1237.63	7740.57
1240.52	8242.48
1243.41	8428.56
1246.31	8633.06
1249.2	8664.91
1252.09	8649.07
1254.98	8943
1257.88	9367.95
1260.77	8641.03
1263.66	6487.65
1266.56	3394.73
1269.45	474.285
