Measurement: Raman, 785 nm, unoriented, Raman Data Processed
Mineral: Hellyerite
Rruff sample: R061050
Ideal chemistry: Ni^2+^CO_3_6H_2_O
Locality: Lord Brassy mine, Tasmania, Australia
Source: Michael Scott
Description: Apple green colored, lamellar, fragmented crystals, amorphous, apparently dehydrated
Raman shift (cm-1)	intensity
127.313	0
130.206	89.8871
133.099	146.628
135.991	59.2493
138.884	8.55908
141.777	1.19159
144.669	72.3863
147.562	148.9
150.455	173.23
153.347	153.11
156.24	101.678
159.133	74.1883
162.026	82.4588
164.918	84.0036
167.811	99.1969
170.704	74.029
173.596	79.5302
176.489	63.3815
179.382	62.8574
182.274	32.8666
185.167	27.8521
188.06	28.0814
190.953	13.7008
193.845	12.5809
196.738	32.3233
199.631	40.6907
202.523	8.62833
205.416	36.056
208.309	13.6785
211.202	33.3787
214.094	2.71573
216.987	4.51083
219.88	14.6838
222.772	5.43912
225.665	9.17697
228.558	1.31358
231.45	0.128387
234.343	4.01622
237.236	14.4554
240.129	6.7804
243.021	3.12453
245.914	5.54228
248.807	0.251099
251.699	27.5323
254.592	23.599
257.485	20.0258
260.377	31.5981
263.27	21.4041
266.163	0.555328
269.055	16.9589
271.948	20.0554
274.841	19.0828
277.734	6.94627
280.626	13.7162
283.519	9.33118
286.412	27.1873
289.304	37.2804
292.197	42.5544
295.09	24.5519
297.983	31.2052
300.875	32.1351
303.768	23.1345
306.661	28.5423
309.553	25.9545
312.446	13.8179
315.339	16.2614
318.231	27.1139
321.124	30.9462
324.017	1.48956
326.909	2.73784
329.802	17.8053
332.695	19.6854
335.588	39.6968
338.48	5.49423
341.373	14.2164
344.266	13.7594
347.158	10.429
350.051	17.2812
352.944	29.4078
355.837	11.7724
358.729	7.79334
361.622	18.0317
364.515	13.2907
367.407	31.0426
370.3	25.6733
373.193	18.1685
376.085	12.4739
378.978	29.9361
381.871	5.91843
384.764	26.8357
387.656	20.4885
390.549	21.5809
393.442	9.10713
396.334	12.1122
399.227	5.56186
402.12	2.48041
405.012	8.21536
407.905	12.9277
410.798	32.2285
413.69	15.418
416.583	30.0018
419.476	9.02657
422.369	14.6228
425.261	24.3864
428.154	37.7751
431.047	5.44147
433.939	22.6738
436.832	41.4499
439.725	3.58801
442.618	25.348
445.51	25.7416
448.403	47.5796
451.296	45.8701
454.188	15.1326
457.081	44.9057
459.974	36.7019
462.866	34.7351
465.759	27.5422
468.652	6.59149
471.545	11.8289
474.437	8.67192
477.33	8.78235
480.223	13.7389
483.115	13.292
486.008	22.1343
488.901	37.19
491.793	23.4339
494.686	21.0911
497.579	29.0084
500.472	29.5781
503.364	42.0786
506.257	36.9676
509.15	39.1729
512.042	69.7858
514.935	90.8716
517.828	93.4686
520.721	142.076
523.613	167.853
526.506	159.254
529.399	149.26
532.291	123.938
535.184	120.643
538.077	111.34
540.969	114.87
543.862	66.6994
546.755	66.2991
549.648	62.4882
552.54	33.3254
555.433	33.0464
558.326	9.98089
561.218	5.83505
564.111	21.7984
567.004	43.129
569.896	11.798
572.789	6.83158
575.682	3.44649
578.574	30.5488
581.467	7.8277
584.36	11.476
587.253	20.4395
590.145	6.45861
593.038	24.0413
595.931	17.6068
598.823	21.9298
601.716	28.9923
604.609	25.3534
607.501	10.1939
610.394	18.7207
613.287	24.4923
616.18	8.47059
619.072	23.6753
621.965	30.8483
624.858	14.6412
627.75	14.0797
630.643	26.9798
633.536	23.2764
636.428	47.8815
639.321	33.6508
642.214	10.3475
645.107	27.3456
647.999	21.354
650.892	42.6542
653.785	11.3258
656.677	32.0928
659.57	5.1423
662.463	7.06286
665.356	19.8545
668.248	4.23543
671.141	12.85
674.034	24.559
676.926	7.86119
679.819	24.967
682.712	31.4307
685.604	5.05765
688.497	28.5005
691.39	23.9759
694.283	16.775
697.175	4.67688
700.068	10.3696
702.961	6.86047
705.853	20.7221
708.746	21.9163
711.639	37.7647
714.531	4.42821
717.424	31.0034
720.317	40.1447
723.21	22.3711
726.102	43.3176
728.995	18.3289
731.888	39.863
734.78	1.25446
737.673	10.8032
740.566	12.6221
743.458	14.2898
746.351	13.8959
749.244	37.7427
752.136	26.5684
755.029	12.1599
757.922	44.8967
760.815	37.5593
763.707	22.2517
766.6	29.7993
769.493	2.20374
772.385	30.6689
775.278	14.8857
778.171	14.7674
781.063	26.4482
783.956	7.18989
786.849	31.5592
789.742	14.848
792.634	28.5252
795.527	6.41487
798.42	14.8992
801.312	3.55702
804.205	13.7785
807.098	21.1425
809.99	22.2766
812.883	0.814484
815.776	25.1876
818.669	5.72922
821.561	16.4815
824.454	13.8624
827.347	26.7281
830.239	16.182
833.132	3.07785
836.025	19.1281
838.918	23.4084
841.81	19.2308
844.703	28.4226
847.596	45.6995
850.488	3.70353
853.381	2.63355
856.274	19.0933
859.166	5.24712
862.059	32.2661
864.952	13.2514
867.845	23.2123
870.737	8.11722
873.63	5.58079
876.523	40.7241
879.415	35.2301
882.308	39.6199
885.201	18.5467
888.093	54.1869
890.986	17.9799
893.879	25.2487
896.771	17.378
899.664	3.46184
902.557	39.6945
905.45	29.1734
908.342	31.0774
911.235	33.8766
914.128	22.7361
917.02	34.6859
919.913	39.5158
922.806	52.4957
925.698	49.5383
928.591	76.7194
931.484	72.4505
934.377	64.9912
937.269	62.7129
940.162	56.1441
943.055	27.7235
945.947	31.8294
948.84	47.1172
951.733	51.5846
954.625	25.4818
957.518	10.5908
960.411	15.6445
963.304	21.1051
966.196	21.3482
969.089	18.4452
971.982	25.2067
974.875	30.4168
977.767	18.4474
980.66	22.9908
983.553	19.348
986.445	26.6016
989.338	4.13477
992.231	10.2347
995.123	24.4993
998.016	31.5197
1000.91	32.539
1003.8	42.9764
1006.69	20.619
1009.59	51.9971
1012.48	0.768143
1015.37	35.7765
1018.26	31.8048
1021.16	8.87354
1024.05	9.69157
1026.94	24.1524
1029.84	2.94425
1032.73	36.061
1035.62	22.5986
1038.51	49.7725
1041.41	38.2315
1044.3	13.7982
1047.19	46.4023
1050.09	45.4237
1052.98	11.0216
1055.87	34.4456
1058.76	50.1386
1061.65	62.0532
1064.55	42.7201
1067.44	46.8914
1070.33	50.5806
1073.23	50.388
1076.12	66.3825
1079.01	66.5748
1081.9	58.1824
1084.8	35.5939
1087.69	61.2284
1090.58	42.0257
1093.47	53.4794
1096.37	45.777
1099.26	54.0704
1102.15	59.5291
1105.05	38.4847
1107.94	18.6353
1110.83	21.1638
1113.72	28.5726
1116.62	26.9879
1119.51	12.1182
1122.4	9.79456
1125.3	26.7787
1128.19	3.42835
1131.08	43.3167
1133.97	13.5668
1136.87	16.8095
1139.76	14.9303
1142.65	56.7462
1145.54	36.2129
1148.44	5.62924
1151.33	36.3057
1154.22	22.6729
1157.12	31.2139
1160.01	15.5146
1162.9	26.1433
1165.79	29.6658
1168.68	4.9756
1171.58	31.8681
1174.47	16.1808
1177.36	11.2157
1180.26	28.2933
1183.15	26.9308
1186.04	9.07435
1188.93	47.4308
1191.83	40.5767
1194.72	0.857655
1197.61	18.2726
1200.51	4.61261
1203.4	29.5943
1206.29	9.51223
1209.18	28.4986
1212.08	10.444
1214.97	37.0139
1217.86	33.1321
1220.75	34.5078
1223.65	19.2625
1226.54	1.94722
1229.43	40.0451
1232.33	12.9442
1235.22	13.4415
1238.11	14.3992
1241	13.0895
1243.9	0
