Measurement: Raman, 785 nm, unoriented, Raman Data Processed
Mineral: Hematite
Rruff sample: R070240
Ideal chemistry: Fe^3+^_2_O_3_
Locality: Moshgai, Gobi Desert, Mongolia
Source: Michael Scott
Description: Black fine-grained replacement of massive but fractured magnetite
Measured chemistry: (Fe^3+^_1.97_Al_0.02_Mn^3+^_0.01_)_Î£=2_O_3_
Raman shift (cm-1)	intensity
171.16	0
174.052	39.4688
176.945	156.754
179.838	501.637
182.73	996.016
185.623	1153.97
188.516	1325.81
191.408	1387.97
194.301	1501.79
197.194	1889.14
200.087	2013.63
202.979	2128.97
205.872	1975.83
208.765	1835.3
211.657	1892.6
214.55	2139.25
217.443	2270.73
220.335	2314.14
223.228	1985.61
226.121	1723.89
229.013	1525.25
231.906	1357.12
234.799	1272.77
237.692	1169.37
240.584	1109.1
243.477	970.68
246.37	1061.64
249.262	784.953
252.155	801.629
255.048	1104.48
257.941	884.469
260.833	957.223
263.726	862.894
266.619	990.481
269.511	965.25
272.404	1049.86
275.297	1122.18
278.19	1233.07
281.082	1382.95
283.975	1404.64
286.868	1370.79
289.76	1158.35
292.653	918.32
295.546	679.129
298.438	540.519
301.331	499.734
304.224	499.961
307.116	226.773
310.009	324.031
312.902	148.769
315.795	66.6133
318.687	15.5039
321.58	14.9023
324.473	25.0508
327.365	139.082
330.258	75.4219
333.151	17.8438
336.043	78.2617
338.936	49.3125
341.829	113.363
344.721	145.141
347.614	86.9297
350.507	26.8828
353.4	94.7617
356.292	45.957
359.185	60.6797
362.078	53.5898
364.97	72.5469
367.863	43.2148
370.756	235.906
373.649	203.59
376.541	278.707
379.434	248.723
382.327	286.047
385.219	289.894
388.112	480.941
391.005	549.914
393.897	672.953
396.79	648.129
399.683	669.109
402.575	529.906
405.468	512.375
408.361	498.695
411.254	292.684
414.146	335.266
417.039	301.719
419.932	282.106
422.824	199.481
425.717	86.4648
428.61	71.3086
431.502	177.453
434.395	64.7227
437.288	179.102
440.181	75.6836
443.073	225.004
445.966	218.719
448.859	106.324
451.751	167.727
454.644	114.301
457.537	72.6055
460.43	43.7891
463.322	205.457
466.215	173.914
469.108	272.789
472	190.996
474.893	177.43
477.786	102.289
480.678	255.324
483.571	233.746
486.464	151.195
489.356	329.961
492.249	278.543
495.142	361.371
498.035	44.9492
500.927	138.727
503.82	176.844
506.713	265.535
509.605	191.59
512.498	99.5391
515.391	233.535
518.284	259.508
521.176	20.707
524.069	112.254
526.962	129.988
529.854	160.941
532.747	189.977
535.64	125.051
538.533	127.305
541.425	121.023
544.318	184.973
547.211	106.258
550.103	46.5234
552.996	12.1523
555.889	17.6406
558.781	189.734
561.674	131.309
564.567	216.086
567.459	128.449
570.352	265.051
573.245	250.715
576.138	2.85547
579.03	252.586
581.923	222.949
584.816	158.414
587.708	320.723
590.601	248.477
593.494	184.34
596.386	140.461
599.279	162.957
602.172	301.43
605.064	229.352
607.957	292.699
610.85	227.641
613.743	93.707
616.635	198.949
619.528	169.312
622.421	14.0625
625.313	68.3516
628.206	130.523
631.099	48.375
633.991	109.762
636.884	155.996
639.777	177.668
642.67	34.5859
645.562	198.238
648.455	98.6992
651.348	98.8711
654.24	171.398
657.133	117.09
660.026	115.918
662.918	123.555
665.811	3.13672
668.704	107.535
671.597	250.582
674.489	238.547
677.382	278.383
680.275	81.9727
683.167	291.219
686.06	106.188
688.953	9.92188
691.846	127.648
694.738	207.305
697.631	199.035
700.524	229.312
703.416	166.035
706.309	176.004
709.202	221.312
712.094	202.723
714.987	163.781
717.88	181.703
720.773	143.168
723.665	169.211
726.558	139.781
729.451	179.047
732.343	106.871
735.236	81.4844
738.129	238.816
741.021	189.062
743.914	108.512
746.807	191.606
749.699	15.3555
752.592	62.4766
755.485	252.086
758.378	114.914
761.27	173.481
764.163	129.586
767.056	43.7305
769.948	91.2031
772.841	156.18
775.734	51.4648
778.626	108.106
781.519	8.55859
784.412	127.309
787.305	68.8164
790.197	275.375
793.09	47.7578
795.983	228.488
798.875	159.465
801.768	63.207
804.661	43.25
807.553	78
810.446	76.1797
813.339	111.059
816.232	148.297
819.124	4.73047
822.017	221.609
824.91	97.5039
827.802	221.426
830.695	188.848
833.588	70.4727
836.481	114.434
839.373	139.223
842.266	160.359
845.159	144.231
848.051	215.477
850.944	114.18
853.837	56.9141
856.729	152.738
859.622	99.6484
862.515	120.18
865.408	154.359
868.3	188.121
871.193	220.988
874.086	149.176
876.978	27.2461
879.871	211.707
882.764	230.559
885.656	364.125
888.549	189.203
891.442	141.769
894.335	90.0469
897.227	303.625
900.12	149.949
903.013	20.0039
905.905	162.047
908.798	203.254
911.691	101.828
914.583	242
917.476	89.1484
920.369	168.797
923.261	278.93
926.154	209.121
929.047	203.344
931.94	262.793
934.832	191.734
937.725	116.484
940.618	154.281
943.51	172.648
946.403	142.035
949.296	183.113
952.188	201.375
955.081	1.94141
957.974	286.75
960.867	168.066
963.759	96.2539
966.652	108.984
969.545	43.5781
972.437	156.293
975.33	147.934
978.223	98.4961
981.115	315.68
984.008	90.1328
986.901	168.988
989.794	34.3438
992.686	166.812
995.579	265.438
998.472	128.449
1001.36	101.902
1004.26	196.301
1007.15	75.5547
1010.04	229.867
1012.93	78.2539
1015.83	89.8672
1018.72	297.625
1021.61	218.383
1024.51	61.9297
1027.4	143.641
1030.29	134.121
1033.18	239.41
1036.08	166.797
1038.97	94.4766
1041.86	102.035
1044.76	73.4453
1047.65	262.453
1050.54	55.7422
1053.43	193.195
1056.33	20.582
1059.22	218.742
1062.11	80.7539
1065	148.527
1067.9	222.879
1070.79	70.1523
1073.68	169.418
1076.58	105.75
1079.47	330.062
1082.36	194.309
1085.25	174.91
1088.14	60.8359
1091.04	98.0039
1093.93	60.0312
1096.82	24.6641
1099.72	248.738
1102.61	116.383
1105.5	26.4258
1108.39	143.695
1111.29	7.49609
1114.18	103.644
1117.07	96.0273
1119.96	137.719
1122.86	75.2031
1125.75	126.512
1128.64	184.879
1131.54	114.473
1134.43	115.285
1137.32	95.1406
1140.21	107.824
1143.11	269.949
1146	113.047
1148.89	105.586
1151.79	252.32
1154.68	64.9805
1157.57	17.7578
1160.46	168.769
1163.36	47.2148
1166.25	58.8164
1169.14	1.45703
1172.03	4.32812
1174.93	185.637
1177.82	235.664
1180.71	155.418
1183.6	107.996
1186.5	21.0625
1189.39	208.648
1192.28	195.379
1195.17	118.961
1198.07	192.746
1200.96	221.566
1203.85	152.441
1206.75	105.41
1209.64	156.856
1212.53	156.941
1215.42	176.695
1218.32	359.523
1221.21	209.41
1224.1	309.402
1226.99	167.301
1229.89	237.891
1232.78	226.961
1235.67	11.5859
1238.57	146.977
1241.46	139.664
