Measurement: Raman, 532 nm, unoriented, Raman Data Processed
Mineral: Hematite
Rruff sample: R070240
Ideal chemistry: Fe^3+^_2_O_3_
Locality: Moshgai, Gobi Desert, Mongolia
Source: Michael Scott
Description: Black fine-grained replacement of massive but fractured magnetite
Measured chemistry: (Fe^3+^_1.97_Al_0.02_Mn^3+^_0.01_)_Î£=2_O_3_
Raman shift (cm-1)	intensity
158.822	0
161.715	4.17212
164.607	36.1235
167.5	16.1238
170.393	67.3989
173.286	49.3196
176.178	47.2617
179.071	65.3315
181.964	51.6023
184.856	87.9326
187.749	100.723
190.642	173.337
193.535	206.941
196.427	274.617
199.32	322.062
202.213	349.834
205.105	452.891
207.998	496.85
210.891	562.865
213.783	515.047
216.676	556.239
219.569	471.076
222.462	402.403
225.354	299.853
228.247	225.363
231.14	177.517
234.032	162.915
236.925	99.5332
239.818	182.889
242.71	166.262
245.603	165.333
248.496	179.612
251.388	160.411
254.281	242.148
257.174	309.934
260.067	334.625
262.959	371.3
265.852	469.66
268.745	478.562
271.637	512.825
274.53	624.526
277.423	519.563
280.315	565.913
283.208	511.7
286.101	493.074
288.994	425.951
291.886	340.547
294.779	278.334
297.672	234.89
300.564	176.463
303.457	114.022
306.35	208.944
309.243	93.0513
312.135	24.8809
315.028	20.0708
317.921	19.02
320.813	22.9365
323.706	20.2671
326.599	11.1411
329.491	8.71729
332.384	30.1763
335.277	1.34766
338.17	26.3682
341.062	10.126
343.955	45.5796
346.848	8.09766
349.74	35.3018
352.633	46.562
355.526	39.019
358.418	90.708
361.311	62.7895
364.204	54.0757
367.097	118.622
369.989	131.089
372.882	187.367
375.775	148.711
378.667	136.122
381.56	180.533
384.453	215.374
387.346	254.888
390.238	227.724
393.131	235.641
396.024	204.21
398.916	193.583
401.809	179.115
404.702	169.334
407.594	218.488
410.487	125.472
413.38	142.895
416.272	125.01
419.165	113.71
422.058	43.0361
424.951	87.6626
427.843	51.188
430.736	84.3481
433.629	19.7993
436.521	43.5034
439.414	28.292
442.307	105.693
445.2	46.1777
448.092	14.3452
450.985	22.8857
453.878	34.7593
456.77	55.9209
459.663	42.48
462.556	79.2681
465.448	29.9697
468.341	37.4937
471.234	57.6406
474.127	46.5732
477.019	62.7602
479.912	79.3745
482.805	45.6631
485.697	33.876
488.59	110.981
491.483	96.7437
494.375	60.4273
497.268	90.6416
500.161	36.2437
503.053	32.9653
505.946	69.0752
508.839	20.5449
511.732	64.6875
514.624	65.5938
517.517	20.2944
520.41	45.9038
523.302	24.3018
526.195	47.7578
529.088	41.6699
531.981	7.03613
534.873	25.7905
537.766	63.6294
540.659	21.291
543.551	39.7915
546.444	62.2476
549.337	57.8096
552.229	24.9556
555.122	78.2388
558.015	59.4385
560.908	76.5977
563.8	50.6592
566.693	101.301
569.586	134.322
572.478	72.1553
575.371	67.8892
578.264	112.577
581.156	88.2983
584.049	125.057
586.942	121.318
589.835	102.696
592.727	129.502
595.62	72.8184
598.513	127.257
601.405	110.183
604.298	105.367
607.191	46.4194
610.083	68.6665
612.976	117.078
615.869	29.9541
618.762	76.0264
621.654	45.044
624.547	51.7856
627.44	38.418
630.332	42.5977
633.225	6.00146
636.118	49.5337
639.01	55.3135
641.903	55.7983
644.796	38.1587
647.689	90.5488
650.581	97.7109
653.474	127.835
656.367	65.0952
659.259	86.8906
662.152	10.4951
665.045	69.5483
667.938	79.7593
670.83	69.4146
673.723	133.466
676.616	43.2539
679.508	24.3271
682.401	71.4394
685.294	14.9214
688.186	69.2695
691.079	12.1025
693.972	39.6787
696.865	25.8945
699.757	38.3555
702.65	38.915
705.543	52.187
708.435	57.1812
711.328	5.60059
714.221	41.6733
717.113	45.481
720.006	37.5962
722.899	56.8882
725.792	51.2002
728.684	59.6948
731.577	46.6304
734.47	87.4336
737.362	30.3403
740.255	61.7022
743.148	9.31299
746.04	28.9644
748.933	10.2383
751.826	31.1274
754.719	63
757.611	16.043
760.504	30.8232
763.397	41.9551
766.289	49.5791
769.182	87.6509
772.075	50.4395
774.967	11.582
777.86	83.3828
780.753	90.1572
783.646	64.7519
786.538	55.752
789.431	16.2905
792.324	61.8804
795.216	18.3208
798.109	52.3164
801.002	61.6831
803.894	58.1421
806.787	86.1069
809.68	39.1768
812.573	9.86426
815.465	99.7222
818.358	66.9385
821.251	95.3047
824.143	54.5483
827.036	65.6894
829.929	26.8076
832.822	72.8784
835.714	44.1816
838.607	38.0381
841.5	87.1548
844.392	47.5835
847.285	24.5073
850.178	50.9448
853.07	67.4365
855.963	0.40918
858.856	66.4414
861.749	47.206
864.641	12.5469
867.534	26.3135
870.427	25.3833
873.319	62.7007
876.212	27.5986
879.105	58.6089
881.997	43.6587
884.89	111.315
887.783	23.4014
890.676	4.84717
893.568	46.918
896.461	78.189
899.354	119.435
902.246	31.1987
905.139	55.4966
908.032	47.0469
910.924	78.8691
913.817	65.937
916.71	82.3023
919.602	47.8501
922.495	1.32373
925.388	52.1797
928.281	22.7319
931.173	24.4834
934.066	5.53467
936.959	41.3921
939.851	103.35
942.744	25.541
945.637	100.319
948.529	46.1758
951.422	49.563
954.315	61.0957
957.208	40.5151
960.1	0.705566
962.993	50.9448
965.886	4.40137
968.778	1.02881
971.671	73.1113
974.564	15.6914
977.457	19.6352
980.349	35.2344
983.242	19.6865
986.135	67.1826
989.027	57.5781
991.92	4.02246
994.813	20.9688
997.705	79.7109
1000.6	48.7256
1003.49	16.877
1006.38	25.0664
1009.28	34.5967
1012.17	105.311
1015.06	86.9092
1017.95	39.9668
1020.85	35.8525
1023.74	29.5527
1026.63	27.3359
1029.53	27.2031
1032.42	56.1924
1035.31	30.6758
1038.2	81.5166
1041.1	24.0244
1043.99	15.1221
1046.88	74.7627
1049.77	65.6797
1052.67	58.4971
1055.56	49.4482
1058.45	60.9092
1061.35	36.1875
1064.24	1.5293
1067.13	77.1582
1070.02	64.5078
1072.92	52.3486
1075.81	40.7236
1078.7	32.3252
1081.59	21.3838
1084.49	81.0147
1087.38	55.5596
1090.27	54.875
1093.16	21.708
1096.06	2.17676
1098.95	88.7588
1101.84	58.6357
1104.73	34.1484
1107.63	48.1572
1110.52	115.422
1113.41	33.4033
1116.31	39.1094
1119.2	54.0312
1122.09	113.18
1124.98	67.8525
1127.88	14.544
1130.77	71.7637
1133.66	4.48438
1136.56	151.378
1139.45	94.7754
1142.34	114.315
1145.23	106.742
1148.13	64.5508
1151.02	66.8633
1153.91	75.3096
1156.8	108.973
1159.7	72.4785
1162.59	36.0654
1165.48	58.207
1168.38	39.8906
1171.27	33.4355
1174.16	99.9346
1177.05	99.1269
1179.95	43.1094
1182.84	141.21
1185.73	7.49121
1188.62	92.6875
1191.52	72.8057
1194.41	104.597
1197.3	38.459
1200.19	48.2441
1203.09	93.1709
1205.98	22.5801
1208.87	89.7627
1211.77	63.9648
1214.66	26.7529
1217.55	37.0137
1220.44	45.1846
1223.34	52.8555
1226.23	54.2598
1229.12	73.3184
1232.01	7.49414
1234.91	105.447
1237.8	70.7539
1240.69	95.8564
1243.59	25.1611
1246.48	19.6191
1249.37	85.5889
1252.26	61.3955
1255.16	90.082
1258.05	32.3672
1260.94	96.957
1263.83	52.2402
1266.73	26.0518
1269.62	95.0537
1272.51	84.5938
1275.4	24.3389
1278.3	87.9688
1281.19	97.6309
1284.08	86.4062
1286.98	61.294
1289.87	75.5762
1292.76	101.343
1295.65	72.541
1298.55	53.9277
1301.44	91.7236
1304.33	125.92
1307.22	79.7217
1310.12	28.6738
1313.01	26.1963
