Measurement: Raman, 785 nm, unoriented, Raman Data Processed
Mineral: Hemusite
Rruff sample: R061011
Ideal chemistry: Cu^1+^_4_Cu^2+^_2_Sn^4+^Mo^4+^S^2-^_8_
Locality: Kawazu mine, Shizuoka, Japan
Source: Michael Scott
Description: Metallic tarnished purple coatings and blebs in quartz
Raman shift (cm-1)	intensity
180.346	0
183.239	2.80566
186.132	8.6084
189.024	166.084
191.917	226.022
194.81	392.635
197.703	607.217
200.595	829.881
203.488	938.331
206.381	1006.66
209.273	1160.31
212.166	1227.8
215.059	1458.53
217.951	1580.07
220.844	1818.74
223.737	2622.4
226.63	2130.5
229.522	2358.85
232.415	2461.87
235.308	2456.65
238.2	2564.45
241.093	2563.12
243.986	2621.32
246.878	2579.56
249.771	2508.37
252.664	2524.49
255.556	2570.72
258.449	2614.19
261.342	2426.88
264.235	2264.38
267.127	1973.37
270.02	1608.71
272.913	1297.86
275.805	1006.93
278.698	837.407
281.591	670.914
284.484	579.026
287.376	373.272
290.269	176.626
293.162	79.5147
296.054	95.417
298.947	1.80859
301.84	132.772
304.733	9.07227
307.625	11.626
310.518	9.05664
313.411	34.876
316.303	61.0098
319.196	104.093
322.089	27.2686
324.981	41.3779
327.874	113.588
330.767	80.3027
333.659	105.547
336.552	60.0166
339.445	58.79
342.337	55.4912
345.23	68.6875
348.123	104.595
351.016	140.944
353.908	179.03
356.801	143.122
359.694	105.224
362.586	105.017
365.479	116.925
368.372	70.6865
371.264	214.944
374.157	245.906
377.05	510.69
379.943	394.408
382.835	289.281
385.728	155.352
388.621	118.062
391.513	83.7988
394.406	129.968
397.299	128.025
400.192	101.327
403.084	0.692383
405.977	49.9502
408.87	25.5273
411.762	3.64453
414.655	51.0264
417.548	82.1328
420.44	76.7129
423.333	23.6465
426.226	3.9668
429.118	45.2285
432.011	51.3272
434.904	0.546875
437.797	42.5
440.689	30.3135
443.582	70.9844
446.475	80.2188
449.367	97.2793
452.26	112.535
455.153	160.654
458.046	319.162
460.938	435.502
463.831	595.165
466.724	912.027
469.616	1269.82
472.509	1401.92
475.402	990.4
478.294	456.648
481.187	208.315
484.08	93.583
486.973	52.04
489.865	94.2832
492.758	73.2852
495.651	87.2578
498.543	20.7227
501.436	14.5283
504.329	83.5459
507.221	72.4648
510.114	61.6416
513.007	106.904
515.899	121.418
518.792	165.793
521.685	89.7363
524.578	168.115
527.47	140.704
530.363	97.9844
533.256	82.2119
536.148	35.4512
539.041	117.114
541.934	129.048
544.827	60.877
547.719	114.213
550.612	24.6523
553.505	27.5732
556.397	3.10644
559.29	64.6699
562.183	92.7988
565.075	39.5059
567.968	44.6611
570.861	27.1934
573.754	13.5312
576.646	0.548828
579.539	83.8223
582.432	187.841
585.324	145.365
588.217	168.109
591.11	184.627
594.002	142.661
596.895	149.44
599.788	266.031
602.681	229.056
605.573	305.413
608.466	380.869
611.359	382.581
614.251	342.856
617.144	352.504
620.037	269.231
622.929	389.018
625.822	353.937
628.715	319.077
631.607	343.052
634.5	301.37
637.393	317.591
640.286	279.356
643.178	156.648
646.071	109.196
648.964	137.435
651.856	184.816
654.749	90.8457
657.642	153.14
660.534	105.084
663.427	37.6397
666.32	5.92383
669.213	21.332
672.105	51.5684
674.998	8.84082
677.891	67.1875
680.783	71.251
683.676	60.8935
686.569	13.9736
689.462	76.9766
692.354	86.7978
695.247	65.9941
698.14	57.2451
701.032	6.3418
703.925	4.69238
706.818	12.0293
709.71	29.1484
712.603	33.9639
715.496	50.1318
718.389	47.7188
721.281	87.2129
724.174	93.3057
727.067	42.2754
729.959	24.3506
732.852	49.5762
735.745	74.0859
738.637	61.1963
741.53	73.3613
744.423	21.1396
747.316	74.7773
750.208	34.1611
753.101	71.0225
755.994	15.3721
758.886	82.376
761.779	77.1973
764.672	117.759
767.564	72.4658
770.457	41.2012
773.35	152.626
776.242	128.359
779.135	119.917
782.028	139.294
784.921	197.551
787.813	182.394
790.706	205.369
793.599	161.087
796.491	122.803
799.384	91.9736
802.277	152.497
805.169	150.683
808.062	176.466
810.955	150.705
813.848	140.755
816.74	145.7
819.633	148.892
822.526	86.9224
825.418	171.341
828.311	59.0767
831.204	125.488
834.096	123.712
836.989	102.416
839.882	87.9912
842.775	90.0083
845.667	73.834
848.56	112.936
851.453	56.2246
854.345	67.5435
857.238	29.6895
860.131	60.8145
863.024	14.4604
865.916	66.98
868.809	11.1435
871.702	26.0254
874.594	52.0669
877.487	2.29639
880.38	73.562
883.272	24.7227
886.165	36.2978
889.058	51.5869
891.951	19.3311
894.843	4.43066
897.736	91.5322
900.629	42.7568
903.521	61.1123
906.414	114.765
909.307	70.1069
912.199	48.0425
915.092	71.8076
917.985	78.2891
920.877	86.4497
923.77	22.3013
926.663	160.855
929.556	40.8721
932.448	121.07
935.341	94.5347
938.234	35.7075
941.126	56.9668
944.019	86.2344
946.912	67.0786
949.804	121.657
952.697	57.8052
955.59	106.661
958.482	27.523
961.375	128.269
964.268	37.3901
967.161	106.473
970.053	36.2398
972.946	125.519
975.839	98.1167
978.731	88.8828
981.624	94.0723
984.517	67.6011
987.409	0.773926
990.302	21.6738
993.195	33.706
996.088	117.461
998.98	119.551
1001.87	89.5098
1004.77	89.2246
1007.66	103.699
1010.55	68.1401
1013.44	118.671
1016.34	81.5478
1019.23	103.147
1022.12	23.9014
1025.02	59.2651
1027.91	95.1782
1030.8	86.6138
1033.69	84.1431
1036.59	55.2134
1039.48	154.661
1042.37	66.7935
1045.26	99.5073
1048.16	66.7056
1051.05	59.4805
1053.94	49.3188
1056.83	66.2339
1059.73	110.335
1062.62	56.7725
1065.51	68.0913
1068.4	31.4575
1071.3	69.2647
1074.19	73.5264
1077.08	62.2363
1079.98	15.355
1082.87	26.5811
1085.76	1.25
1088.65	49.6016
1091.55	10.3813
1094.44	55.9243
1097.33	6.82031
1100.22	38.166
1103.12	62.9531
1106.01	7.90918
1108.9	118.811
1111.8	95.7925
1114.69	123.521
1117.58	76.0288
1120.47	15.9473
1123.37	50.5801
1126.26	18.3413
1129.15	31.834
1132.05	50.3516
1134.94	36.5772
1137.83	61.6645
1140.72	57.6748
1143.62	10.9541
1146.51	2.8999
1149.4	52.7358
1152.29	23.21
1155.19	29.1987
1158.08	102.002
1160.97	42.5796
1163.86	46.2427
1166.76	49.9785
1169.65	62.6138
1172.54	14.4253
1175.43	21.1104
1178.33	107.683
1181.22	65.9775
1184.11	44.8662
1187.01	37.5918
1189.9	66.519
1192.79	13.6719
1195.68	71.0649
1198.58	91.8589
1201.47	38.562
1204.36	74.8545
1207.26	2.15625
1210.15	49.6924
1213.04	108.554
1215.93	97.5478
1218.83	46.4199
1221.72	70.3579
1224.61	133.246
1227.5	75.3291
1230.4	34.1699
1233.29	106.792
1236.18	46.3355
1239.07	19.4072
1241.97	4.82031
1244.86	18.3911
1247.75	32.1675
1250.64	36.5981
1253.54	49.0063
1256.43	53.9902
1259.32	52.3545
1262.22	75.686
1265.11	46.1279
1268	46.0532
