Measurement: Raman, 785 nm, unoriented, Raman Data Processed
Mineral: Heyrovskyite
Rruff sample: R070010
Ideal chemistry: Pb^2+^_6_Bi^3+^_2_S^2-^_9_
Locality: Hoerky, Rakovnika, Czech Republic
Source: Michael Scott
Description: Bright silver metallic blebs in quartz
Raman shift (cm-1)	intensity
246.878	0
249.771	4.95667
252.663	26.3495
255.556	52.5667
258.449	49.986
261.342	38.2938
264.234	64.4688
267.127	97.5726
270.02	93.038
272.912	123.843
275.805	81.912
278.698	81.2096
281.591	60.2472
284.483	52.7894
287.376	6.40015
290.269	9.39395
293.161	13.611
296.054	5.32181
298.947	10.5226
301.839	5.57843
304.732	15.4836
307.625	20.0955
310.517	6.04285
313.41	5.57178
316.303	21.7219
319.196	6.78455
322.088	0.652496
324.981	25.2011
327.874	11.2799
330.766	18.9281
333.659	32.2626
336.552	52.0007
339.445	78.1939
342.337	52.203
345.23	44.3223
348.123	57.9275
351.015	66.9283
353.908	51.0193
356.801	48.4074
359.693	42.0306
362.586	48.8019
365.479	33.4046
368.372	20.2276
371.264	52.6112
374.157	39.0554
377.05	39.6059
379.942	56.3729
382.835	46.1884
385.728	37.6375
388.62	16.1717
391.513	31.1536
394.406	17.3619
397.299	31.4942
400.191	30.2772
403.084	0.919586
405.977	15.3828
408.869	22.4521
411.762	12.8061
414.655	0.264587
417.548	26.2279
420.44	25.1307
423.333	38.0136
426.226	5.54327
429.118	1.44388
432.011	6.95517
434.904	20.041
437.796	0.373749
440.689	13.5585
443.582	20.2945
446.474	34.8622
449.367	12.8462
452.26	6.45908
455.153	2.95706
458.045	18.5315
460.938	26.3076
463.831	22.66
466.723	18.0221
469.616	10.7742
472.509	33.5472
475.401	28.2366
478.294	21.1581
481.187	16.7699
484.08	19.6097
486.972	30.3951
489.865	15.1613
492.758	26.3799
495.65	25.4385
498.543	25.8887
501.436	53.3972
504.329	11.9489
507.221	14.4854
510.114	36.0124
513.007	4.23914
515.899	13.7098
518.792	3.54663
521.685	15.9076
524.577	13.8533
527.47	3.20377
530.363	8.28287
533.255	23.531
536.148	2.34772
539.041	6.30701
541.934	19.5816
544.826	20.4771
547.719	42.7204
550.612	7.9754
553.504	37.5482
556.397	37.55
559.29	36.9132
562.183	16.2958
565.075	23.5724
567.968	1.75792
570.861	16.3105
573.753	16.5589
576.646	6.99675
579.539	12.792
582.431	23.3129
585.324	12.8314
588.217	9.11655
591.11	9.91321
594.002	6.496
596.895	25.7582
599.788	14.921
602.68	4.58812
605.573	21.0732
608.466	6.28935
611.358	19.5005
614.251	11.9508
617.144	4.93179
620.037	25.3563
622.929	21.1005
625.822	35.4935
628.715	11.4113
631.607	35.5464
634.5	20.8199
637.393	25.626
640.285	5.58659
643.178	23.9839
646.071	6.42859
648.963	24.1122
651.856	20.3055
654.749	20.4987
657.642	23.9152
660.534	28.3216
663.427	28.0617
666.32	14.9279
669.212	15.9463
672.105	23.58
674.998	25.4607
677.89	19.5566
680.783	29.6435
683.676	14.1254
686.569	26.4
689.461	42.0925
692.354	21.5406
695.247	16.9297
698.139	9.86226
701.032	7.63187
703.925	28.2251
706.817	4.78488
709.71	15.7535
712.603	19.0566
715.496	15.8943
718.388	24.0914
721.281	11.6731
724.174	30.3719
727.066	13.756
729.959	24.7251
732.852	39.4951
735.745	44.2587
738.637	42.9183
741.53	17.5213
744.423	22.9719
747.315	31.1976
750.208	48.5897
753.101	28.4005
755.993	28.4107
758.886	31.6006
761.779	30.1112
764.672	9.76192
767.564	1.48572
770.457	17.2338
773.35	37.6585
776.242	4.20683
779.135	15.3212
782.028	8.02148
784.92	43.0717
787.813	27.5826
790.706	19.4846
793.598	23.204
796.491	24.1346
799.384	3.41949
802.277	11.4495
805.169	9.99567
808.062	15.0844
810.955	20.3598
813.847	17.8123
816.74	21.5362
819.633	16.74
822.525	10.688
825.418	8.35951
828.311	18.7567
831.204	22.0735
834.096	17.1199
836.989	13.357
839.882	20.6177
842.774	11.7853
845.667	12.5451
848.56	28.9396
851.453	20.5983
854.345	16.9821
857.238	11.9967
860.131	10.5043
863.023	19.5292
865.916	1.77974
868.809	14.586
871.702	12.1822
874.594	10.6829
877.487	3.41975
880.38	7.77447
883.272	23.9274
886.165	37.346
889.058	28.2176
891.95	30.9105
894.843	25.2431
897.736	27.0562
900.629	20.5636
903.521	26.9364
906.414	26.3777
909.307	8.77477
912.199	28.9298
915.092	0.171509
917.985	5.61665
920.877	38.2091
923.77	33.3143
926.663	12.6988
929.556	21.6918
932.448	11.7504
935.341	23.4908
938.234	16.757
941.126	32.1202
944.019	28.3513
946.912	29.5425
949.804	28.1586
952.697	31.5818
955.59	37.4211
958.482	11.2159
961.375	17.8616
964.268	38.1651
967.161	31.2047
970.053	39.8841
972.946	9.24934
975.839	45.5045
978.731	45.0033
981.624	18.2728
984.517	17.2222
987.409	31.8968
990.302	18.06
993.195	11.7239
996.088	28.3287
998.98	17.8882
1001.87	46.3168
1004.77	36.2775
1007.66	6.77052
1010.55	0.616653
1013.44	17.3097
1016.34	26.1125
1019.23	0.00032
1022.12	0.063416
1025.02	11.1969
1027.91	14.6572
1030.8	41.1249
1033.69	27.4036
1036.59	27.6469
1039.48	50.2088
1042.37	31.6681
1045.26	9.88406
1048.16	28.4007
1051.05	24.3467
1053.94	16.9014
1056.83	29.2792
1059.73	27.772
1062.62	28.7711
1065.51	25.3856
1068.4	32.98
1071.3	39.0553
1074.19	20.4463
1077.08	25.7157
1079.98	44.6516
1082.87	31.0964
1085.76	8.38725
1088.65	11.5661
1091.55	26.6182
1094.44	6.1181
1097.33	7.84245
1100.22	11.0158
1103.12	20.7254
1106.01	5.89534
1108.9	8.75883
1111.8	10.1019
1114.69	9.77165
1117.58	16.3434
1120.47	6.10724
1123.37	20.6332
1126.26	1.18106
1129.15	14.8373
1132.05	8.33334
1134.94	21.5048
1137.83	37.085
1140.72	23.3954
1143.62	18.6994
1146.51	1.89914
1149.4	12.9724
1152.29	22.8274
1155.19	24.1479
1158.08	22.552
1160.97	5.31148
1163.86	21.1493
1166.76	25.7109
1169.65	26.7846
1172.54	18.9976
1175.43	37.2279
1178.33	26.1764
1181.22	35.5764
1184.11	40.7052
1187.01	6.62528
1189.9	20.9901
1192.79	41.7777
1195.68	18.1565
1198.58	31.6831
1201.47	13.7446
1204.36	0.139236
1207.26	17.6734
1210.15	9.70816
1213.04	35.9629
1215.93	15.7879
1218.83	8.31201
1221.72	48.8378
1224.61	29.0331
1227.5	25.6991
1230.4	37.497
1233.29	28.9126
1236.18	5.74115
1239.07	25.5729
1241.97	28.5714
1244.86	48.2598
1247.75	40.8995
1250.64	21.9652
1253.54	17.8604
1256.43	0.096146
