Measurement: Raman, 532 nm, unoriented, Raman Data Processed
Mineral: Heyrovskyite
Rruff sample: R070010
Ideal chemistry: Pb^2+^_6_Bi^3+^_2_S^2-^_9_
Locality: Hoerky, Rakovnika, Czech Republic
Source: Michael Scott
Description: Bright silver metallic blebs in quartz
Raman shift (cm-1)	intensity
243.231	0
246.123	26.1821
249.016	53.2144
251.909	135.031
254.801	239.136
257.694	276.867
260.587	368.632
263.479	443.29
266.372	558.223
269.265	612.881
272.158	702.459
275.05	810.069
277.943	906.598
280.836	921.94
283.728	868.652
286.621	723.845
289.514	524.243
292.406	374.785
295.299	246.543
298.192	127.553
301.085	57.082
303.977	3.55688
306.87	33.2417
309.763	5.05689
312.655	7.63196
315.548	38.7223
318.441	12.8285
321.334	3.71527
324.226	35.8288
327.119	46.8636
330.012	42.5525
332.904	49.5256
335.797	34.7039
338.69	58.0107
341.582	94.1878
344.475	101.868
347.368	119.82
350.26	101.471
353.153	111.838
356.046	99.6178
358.938	107.521
361.831	143.441
364.724	91.9489
367.617	92.4861
370.509	116.027
373.402	128.056
376.295	109.033
379.187	69.0415
382.08	70.129
384.973	74.3664
387.865	79.264
390.758	31.2871
393.651	69.9517
396.544	48.093
399.436	54.296
402.329	67.1422
405.222	40.324
408.114	47.3316
411.007	68.4446
413.9	41.2106
416.793	29.3226
419.685	30.4063
422.578	63.3165
425.471	47.0327
428.363	14.1876
431.256	65.5307
434.149	18.0481
437.041	81.8403
439.934	47.7795
442.827	60.5727
445.719	67.0248
448.612	45.7867
451.505	77.7644
454.398	23.8305
457.29	35.4298
460.183	78.4331
463.076	67.5287
465.968	58.7493
468.861	73.7193
471.754	45.405
474.647	22.8999
477.539	53.7126
480.432	46.2507
483.325	9.84607
486.217	51.402
489.11	33.0635
492.003	13.128
494.895	4.026
497.788	48.065
500.681	1.30133
503.573	36.4236
506.466	32.9955
509.359	7.81091
512.251	41.8027
515.144	1.13031
518.037	35.6583
520.93	20.0955
523.822	8.07748
526.715	2.76376
529.608	41.1298
532.5	54.7036
535.393	46.5432
538.286	7.20227
541.178	24.1157
544.071	4.86731
546.964	51.0339
549.857	26.8933
552.749	33.229
555.642	15.7288
558.535	13.9677
561.427	11.3485
564.32	14.1502
567.213	7.06079
570.106	44.6443
572.998	10.7152
575.891	5.38007
578.784	22.0594
581.676	61.064
584.569	3.13492
587.462	16.6685
590.354	32.0425
593.247	44.1201
596.14	18.8129
599.032	40.9165
601.925	44.8331
604.818	24.538
607.711	16.9472
610.603	42.4692
613.496	20.215
616.389	47.691
619.281	36.5814
622.174	32.5317
625.067	48.4837
627.959	35.2313
630.852	36.3827
633.745	26.8231
636.638	60.9403
639.53	46.3635
642.423	45.4064
645.316	5.55664
648.208	36.5773
651.101	22.9464
653.994	27.9472
656.886	43.8817
659.779	19.3697
662.672	18.3279
665.564	13.3573
668.457	10.0133
671.35	58.2963
674.243	66.45
677.135	32.1269
680.028	2.33313
682.921	39.6628
685.813	1.30313
688.706	26.466
691.599	36.2575
694.491	25.6582
697.384	24.2882
700.277	21.3895
703.17	34.6824
706.062	47.9727
708.955	0.955688
711.848	3.5314
714.74	50.4305
717.633	24.2234
720.526	37.0102
723.418	31.0049
726.311	37.2014
729.204	50.9344
732.096	17.22
734.989	21.6911
737.882	54.9728
740.775	27.1627
743.667	47.4411
746.56	32.1153
749.453	16.1173
752.345	44.7734
755.238	46.7262
758.131	58.6738
761.024	11.6442
763.916	53.8232
766.809	0.001617
769.702	12.9421
772.594	7.91449
775.487	48.5172
778.38	20.4033
781.272	19.2565
784.165	27.2936
787.058	23.4679
789.951	34.5956
792.843	27.5286
795.736	0.691498
798.629	12.3534
801.521	32.8934
804.414	18.958
807.307	19.8224
810.199	16.118
813.092	22.3
815.985	29.7455
818.877	34.156
821.77	36.2394
824.663	28.521
827.556	31.6669
830.448	23.5359
833.341	40.3256
836.234	0.019714
839.126	28.6053
842.019	10.4661
844.912	12.8303
847.804	0.885773
850.697	40.0011
853.59	47.436
856.482	4.09082
859.375	36.9344
862.268	27.9839
865.161	39.4819
868.053	51.8351
870.946	29.7123
873.839	5.6926
876.731	26.0524
879.624	36.5479
882.517	37.449
885.409	28.0214
888.302	17.4154
891.195	21.6399
894.088	22.7166
896.98	1.38779
899.873	18.1572
902.766	33.0067
905.658	33.3258
908.551	15.3734
911.444	25.0736
914.337	46.2815
917.229	28.2024
920.122	43.0337
923.015	14.4547
925.907	12.2909
928.8	5.55365
931.693	1.25684
934.585	16.0604
937.478	34.2014
940.371	27.4075
943.263	25.4372
946.156	41.1657
949.049	45.5806
951.942	69.8035
954.834	18.5181
957.727	91.6385
960.62	103.901
963.512	107.255
966.405	131.621
969.298	104.322
972.19	56.1105
975.083	100.457
977.976	77.8832
980.869	43.8034
983.761	55.8103
986.654	49.8067
989.547	69.9781
992.439	38.8649
995.332	36.3047
998.225	47.032
1001.12	49.3625
1004.01	15.7893
1006.9	18.8294
1009.79	11.8117
1012.69	74.0782
1015.58	43.9644
1018.47	4.43356
1021.37	41.8961
1024.26	30.3612
1027.15	20.6694
1030.04	57.7757
1032.94	47.8565
1035.83	30.4912
1038.72	56.6736
1041.62	46.8942
1044.51	26.9741
1047.4	39.5288
1050.29	23.8881
1053.19	8.90695
1056.08	30.2074
1058.97	6.79916
1061.86	74.8904
1064.76	65.198
1067.65	19.5191
1070.54	15.6311
1073.43	5.43088
1076.33	33.1397
1079.22	9.04157
1082.11	5.73807
1085.01	1.12726
1087.9	33.525
1090.79	8.00351
1093.68	0.825043
1096.58	14.8205
1099.47	44.9344
1102.36	31.74
1105.26	21.5547
1108.15	29.2316
1111.04	20.9471
1113.93	29.8897
1116.83	44.8595
1119.72	57.6302
1122.61	72.2206
1125.5	62.2134
1128.4	52.9452
1131.29	14.1612
1134.18	33.93
1137.07	43.5393
1139.97	46.9052
1142.86	69.741
1145.75	1.07445
1148.64	27.2433
1151.54	27.1502
1154.43	5.56136
1157.32	26.4611
1160.22	24.797
1163.11	43.126
1166	7.22798
1168.89	15.8157
1171.79	30.2085
1174.68	46.6555
1177.57	42.0153
1180.46	57.4293
1183.36	34.9535
1186.25	58.8808
1189.14	2.00409
1192.04	37.6369
1194.93	78.0143
1197.82	14.4237
1200.71	43.1206
1203.61	50.9005
1206.5	18.7989
1209.39	28.299
1212.28	41.3994
1215.18	13.5769
1218.07	31.0192
1220.96	39.2078
1223.86	11.5771
1226.75	58.546
1229.64	33.7043
1232.53	29.763
1235.43	54.1506
1238.32	37.9983
1241.21	66.1792
1244.1	22.8601
1247	46.7633
1249.89	1.69705
1252.78	32.1679
1255.67	34.7157
1258.57	18.3601
1261.46	46.4731
1264.35	40.7154
1267.25	45.4987
1270.14	33.7652
1273.03	9.4675
1275.92	28.9621
1278.82	17.5829
1281.71	44.7022
1284.6	61.258
1287.49	0.581848
1290.39	14.2029
1293.28	9.35229
1296.17	61.7833
1299.07	39.0744
1301.96	14.5456
1304.85	44.7818
1307.74	32.9751
1310.64	28.1043
1313.53	21.1954
1316.42	5.83633
