Measurement: Raman, 785 nm, unoriented, Raman Data Processed
Mineral: Hibonite
Rruff sample: R061069
Ideal chemistry: CaAl_12_O_19_
Locality: Madagascar
Source: Michael Scott
Description: Black platy hexagonal prism
Measured chemistry: (Ca_0.82_Ce_0.10_La_0.07_Nd_0.01_)_Σ=1_(Al_10.40_Ti_0.64_Fe_0.59_Mg_0.30_Si_0.07_)_Σ=12_O_19_
Raman shift (cm-1)	intensity
158.27	0
161.163	7.04346
164.056	62.9419
166.948	235.384
169.841	310.094
172.734	498.799
175.626	490.931
178.519	522.36
181.412	584.033
184.304	664.178
187.197	801.726
190.09	790.225
192.983	921.751
195.875	916.952
198.768	935.173
201.661	1034.73
204.553	945.785
207.446	961.781
210.339	932.864
213.232	899.397
216.124	946.161
219.017	810.731
221.91	876.738
224.802	836.858
227.695	818.335
230.588	778.256
233.48	756.003
236.373	727.647
239.266	712.349
242.159	711.114
245.051	678.774
247.944	704.503
250.837	657.289
253.729	647.32
256.622	668.867
259.515	621.854
262.407	560.629
265.3	535.973
268.193	398.154
271.086	364.41
273.978	263.464
276.871	203.268
279.764	131.208
282.656	68.5737
285.549	47.8901
288.442	49.9477
291.334	10.3604
294.227	14.5332
297.12	16.729
300.012	58.5762
302.905	79.7983
305.798	59.252
308.691	19.269
311.583	39.125
314.476	80.7798
317.369	22.1475
320.261	51.6411
323.154	27.1167
326.047	26.9058
328.94	26.4097
331.832	69.6894
334.725	54.8672
337.618	45.6997
340.51	79.6694
343.403	99.0449
346.296	121.764
349.188	93.3301
352.081	148.191
354.974	176.46
357.866	175.203
360.759	276.509
363.652	179.164
366.545	118.601
369.437	77.1113
372.33	111.253
375.223	110.735
378.115	71.1699
381.008	111.585
383.901	67.2461
386.793	12.9521
389.686	17.4824
392.579	67.5601
395.472	54.4238
398.364	21.019
401.257	14.6802
404.15	28.8779
407.042	20.1367
409.935	27.209
412.828	34.771
415.72	36.688
418.613	18.4048
421.506	25.9175
424.399	77.1035
427.291	56.1704
430.184	80.3574
433.077	34.2905
435.969	66.0293
438.862	73.9839
441.755	45.9228
444.647	65.292
447.54	45.9258
450.433	95.1709
453.325	18.5532
456.218	104.972
459.111	76.897
462.004	30.5376
464.896	61.6455
467.789	80.0381
470.682	69.8213
473.574	41.3301
476.467	32.0288
479.36	50.7695
482.252	32.0088
485.145	68.7476
488.038	121.699
490.931	151.027
493.823	106.439
496.716	96.7959
499.609	134.476
502.501	129.744
505.394	92.5772
508.287	45.667
511.18	70.7275
514.072	67.0371
516.965	60.4541
519.858	65.9614
522.75	16.5474
525.643	67.0381
528.536	89.9614
531.428	16.1987
534.321	47.4082
537.214	24.3672
540.106	41.5195
542.999	0.364746
545.892	28.5298
548.785	13.2002
551.677	35.1435
554.57	58.627
557.463	19.1948
560.355	27.9409
563.248	32.2041
566.141	8.35986
569.034	5.92432
571.926	2.22754
574.819	27.6924
577.712	52.2412
580.604	28.3452
583.497	23.7695
586.39	57.8291
589.282	79.9302
592.175	38.1914
595.068	13.5298
597.96	44.1484
600.853	83.957
603.746	77.2168
606.639	100.017
609.531	87.2456
612.424	50.208
615.317	131.966
618.209	99.9893
621.102	127.335
623.995	99.5327
626.888	91.8784
629.78	135.333
632.673	109.908
635.566	128.368
638.458	67.7163
641.351	127.053
644.244	76.4766
647.136	65.9551
650.029	79.7256
652.922	33.9087
655.814	14.6836
658.707	47.7632
661.6	45.3364
664.493	70.7041
667.385	58.9346
670.278	73.9131
673.171	17.8843
676.063	23.6191
678.956	56.4336
681.849	37.9707
684.741	73.5513
687.634	33.8105
690.527	100.368
693.42	54.3989
696.312	70.0601
699.205	42.4199
702.098	62.8882
704.99	50.8813
707.883	18.2305
710.776	14.2134
713.668	14.6094
716.561	27.2856
719.454	18.6846
722.346	12.3345
725.239	18.396
728.132	49.7969
731.025	65.8994
733.917	27.5825
736.81	68.8008
739.703	53.6465
742.595	29.8257
745.488	50.604
748.381	19.772
751.274	39.6562
754.166	73.0244
757.059	68.4556
759.952	62.1982
762.844	77.5581
765.737	91.6909
768.63	85.9009
771.522	86.2773
774.415	82.6504
777.308	119.022
780.201	77.2095
783.093	85.6938
785.986	120.779
788.879	96.3574
791.771	99.5122
794.664	79.4658
797.557	97.7197
800.449	60.0083
803.342	123.758
806.235	76.5854
809.128	73.4658
812.02	27.4517
814.913	55.831
817.806	50.6792
820.698	76.1479
823.591	9.35571
826.484	10.531
829.376	36.864
832.269	13.9119
835.162	45.3357
838.054	5.0293
840.947	27.2156
843.84	49.155
846.733	21.2776
849.625	82.6172
852.518	78.8279
855.411	67.8079
858.303	103.879
861.196	109.388
864.089	51.0007
866.981	67.7805
869.874	80.2529
872.767	53.3025
875.659	61.9612
878.552	75.7878
881.445	77.2388
884.338	52.1162
887.23	20.6301
890.123	43.3813
893.016	45.8845
895.908	76.6072
898.801	67.2605
901.694	29.4006
904.587	34.1868
907.479	80.134
910.372	35.0371
913.265	28.1162
916.157	42.2627
919.05	22.5134
921.943	7.45996
924.835	9.02685
927.728	2.46094
930.621	2.07983
933.514	14.6406
936.406	27.6511
939.299	29.3896
942.192	33.386
945.084	5.64404
947.977	29.2842
950.87	53.9993
953.763	36.6045
956.655	69.7144
959.548	38.3149
962.441	75.7932
965.333	45.8852
968.226	81.1838
971.119	37.553
974.011	82.0012
976.904	68.5779
979.797	64.5059
982.689	78.9485
985.582	59.197
988.475	3.04712
991.368	22.9341
994.26	17.2717
997.153	47.1404
1000.05	47.4216
1002.94	29.2246
1005.83	2.39624
1008.72	32.206
1011.62	55.1846
1014.51	25.3323
1017.4	21.8015
1020.29	13.1826
1023.19	24.6653
1026.08	25.8257
1028.97	66.3347
1031.87	40.7253
1034.76	112.705
1037.65	106.171
1040.54	150.062
1043.44	203.057
1046.33	272.29
1049.22	328.675
1052.11	337.052
1055.01	412.391
1057.9	513.439
1060.79	570.734
1063.68	623.284
1066.58	687.879
1069.47	711.452
1072.36	692.977
1075.26	785.856
1078.15	736.923
1081.04	763.311
1083.93	680.399
1086.83	679.555
1089.72	656.388
1092.61	636.039
1095.51	516.559
1098.4	533.267
1101.29	530.027
1104.18	419.264
1107.08	416.94
1109.97	354.757
1112.86	271.129
1115.75	257.536
1118.65	205.093
1121.54	158.03
1124.43	130.231
1127.32	122.368
1130.22	8.62598
1133.11	8.28882
1136	12.6389
1138.89	27.155
1141.79	50.9131
1144.68	11.4211
1147.57	52.0022
1150.47	163.766
1153.36	293.915
1156.25	377.116
1159.14	391.491
1162.04	517.893
1164.93	682.495
1167.82	755.26
1170.71	882.627
1173.61	1016.55
1176.5	1155.35
1179.39	1270.61
1182.29	1411.42
1185.18	1500.22
1188.07	1629.03
1190.96	1640.78
1193.86	1664.36
1196.75	1685.71
1199.64	1573.46
1202.54	1445.17
1205.43	1365.09
1208.32	1249.09
1211.21	1146.54
1214.11	1045.87
1217	925.231
1219.89	787.951
1222.78	708.471
1225.68	585.033
1228.57	528.978
1231.46	480.241
1234.35	346.757
1237.25	375.932
1240.14	214.396
1243.03	191.208
1245.92	174.221
1248.82	144.804
1251.71	60.3506
1254.6	26.6782
1257.5	25.3574
1260.39	1.96484
1263.28	9.33789
1266.17	55.5942
1269.07	62.0884
