Measurement: Raman, 532 nm, unoriented, Raman Data Processed
Mineral: Hibonite
Rruff sample: R061069
Ideal chemistry: CaAl_12_O_19_
Locality: Madagascar
Source: Michael Scott
Description: Black platy hexagonal prism
Measured chemistry: (Ca_0.82_Ce_0.10_La_0.07_Nd_0.01_)_Σ=1_(Al_10.40_Ti_0.64_Fe_0.59_Mg_0.30_Si_0.07_)_Σ=12_O_19_
Raman shift (cm-1)	intensity
157.724	0
160.617	2.16699
163.509	37.8984
166.402	79.3765
169.295	42.6602
172.187	99.5283
175.08	61.8355
177.973	174.481
180.865	101.148
183.758	177.784
186.651	132.891
189.543	182.964
192.436	250.144
195.329	246.303
198.222	310.25
201.114	220.714
204.007	211.231
206.9	158.389
209.792	158.77
212.685	104.935
215.578	95.6235
218.47	97.6631
221.363	70.4409
224.256	57.8081
227.149	47.4668
230.041	56.2812
232.934	12.7231
235.827	32.6108
238.719	61.6235
241.612	24.5957
244.505	9.90771
247.398	34.8433
250.29	0.371582
253.183	49.062
256.076	85.562
258.968	69.3584
261.861	30.7046
264.754	106.558
267.646	106.497
270.539	163.55
273.432	248.801
276.325	293.332
279.217	274.807
282.11	305.478
285.003	274.267
287.895	420.319
290.788	451.988
293.681	468.468
296.573	467.718
299.466	535.48
302.359	491.99
305.252	581.059
308.144	604.164
311.037	647.434
313.93	731.278
316.822	709.206
319.715	804.537
322.608	773.943
325.5	841.74
328.393	761.195
331.286	782.612
334.178	754.452
337.071	746.896
339.964	709.01
342.857	660.312
345.749	634.894
348.642	643.877
351.535	694.445
354.427	727.396
357.32	843.793
360.213	906.891
363.105	901.624
365.998	599.992
368.891	544.176
371.784	416.056
374.676	399.252
377.569	332.953
380.462	320.44
383.354	333.441
386.247	318.191
389.14	351.451
392.032	273.883
394.925	233.386
397.818	124.335
400.711	32.1553
403.603	23.144
406.496	50.3291
409.389	15.9375
412.281	12.6025
415.174	5.05908
418.067	96.6812
420.959	24.9668
423.852	10.1196
426.745	23.8271
429.637	42.8784
432.53	16.502
435.423	76.0229
438.316	84.4385
441.208	92.9297
444.101	94.124
446.994	85.3584
449.886	84.2061
452.779	59.3291
455.672	16.2432
458.565	14.4873
461.457	3.20312
464.35	13.8516
467.243	35.1431
470.135	83.3911
473.028	60.0898
475.921	51.4551
478.813	77.2158
481.706	68.251
484.599	131.741
487.491	142.391
490.384	218.507
493.277	226.393
496.17	263.854
499.062	261.747
501.955	203.099
504.848	219.779
507.74	319.924
510.633	313.636
513.526	251.279
516.418	256.447
519.311	189.009
522.204	231.44
525.097	134.582
527.989	41.1387
530.882	7.58106
533.775	61.3355
536.667	12.1143
539.56	49.8784
542.453	66.7686
545.346	15.5566
548.238	103.525
551.131	37.5957
554.024	78.3594
556.916	78.2236
559.809	156.651
562.702	138.877
565.594	117.941
568.487	156.64
571.38	159.016
574.273	136.093
577.165	191.669
580.058	151.912
582.951	182.108
585.843	215.921
588.736	245.789
591.629	207.299
594.521	343.611
597.414	280.928
600.307	259.404
603.199	249.566
606.092	364.454
608.985	326.365
611.878	425.736
614.77	393.892
617.663	438.527
620.556	430.838
623.448	545.662
626.341	605.919
629.234	551.148
632.126	566.259
635.019	400.496
637.912	333.673
640.804	246.204
643.697	230.084
646.59	200.306
649.483	109.483
652.375	75.2227
655.268	43.7461
658.161	4.08789
661.053	18.9473
663.946	40.6172
666.839	191.331
669.731	53.1943
672.624	69.1562
675.517	75.7871
678.41	35.5147
681.302	23.8311
684.195	39.4365
687.088	45.9746
689.98	102.436
692.873	67.5625
695.766	92.7188
698.659	61.0195
701.551	73.1221
704.444	125.455
707.337	62.7432
710.229	49.1035
713.122	23.0342
716.015	108.519
718.907	34.5498
721.8	0.280273
724.693	75.2051
727.586	55.6719
730.478	34.9336
733.371	53.377
736.264	70.3657
739.156	131.713
742.049	146.736
744.942	88.8569
747.834	86.376
750.727	37.4175
753.62	87.7163
756.513	230.733
759.405	309.634
762.298	231.145
765.191	266.339
768.083	291.865
770.976	298.423
773.869	301.315
776.761	286.005
779.654	311.783
782.547	321.075
785.439	341.368
788.332	246.562
791.225	280.755
794.118	277.591
797.01	316.236
799.903	223.26
802.796	171.633
805.688	90.1904
808.581	44.1397
811.474	7.16846
814.366	16.02
817.259	28.3257
820.152	150.626
823.045	253.483
825.937	144.385
828.83	261.316
831.723	278.015
834.615	290.423
837.508	340.489
840.401	360.776
843.293	329.132
846.186	391.821
849.079	434.453
851.972	458.56
854.864	507.469
857.757	443.514
860.65	483.552
863.542	480.647
866.435	448.104
869.328	347.446
872.221	331.171
875.113	343.966
878.006	323.139
880.899	338.791
883.791	346.608
886.684	326.903
889.577	276.872
892.469	273.957
895.362	226.638
898.255	241.846
901.147	161.359
904.04	127.358
906.933	41.1406
909.826	57.5166
912.718	26.3652
915.611	23.4072
918.504	23.6123
921.396	39.3794
924.289	36.7388
927.182	35.248
930.074	10.9907
932.967	7.23535
935.86	39.4717
938.753	37.1895
941.645	12.1411
944.538	42.8291
947.431	76.1611
950.323	82.4424
953.216	86.4522
956.109	54.5972
959.001	115.186
961.894	106.644
964.787	159.915
967.679	141.726
970.572	116.46
973.465	148.213
976.358	128.723
979.25	139.997
982.143	156.118
985.036	124.049
987.928	199.909
990.821	199.178
993.714	133.473
996.606	107.179
999.499	89.9727
1002.39	114.863
1005.28	154.43
1008.18	97.1201
1011.07	78.4302
1013.96	111.179
1016.86	42.3931
1019.75	86.0508
1022.64	91.8467
1025.53	91.5283
1028.43	150.891
1031.32	88.3452
1034.21	63.0938
1037.1	67.3184
1040	63.5732
1042.89	91.3574
1045.78	78.8516
1048.67	2.17383
1051.57	45.8442
1054.46	58.2602
1057.35	2.19531
1060.25	15.3999
1063.14	41.1987
1066.03	57.2305
1068.92	77.8931
1071.82	90.7524
1074.71	87.8594
1077.6	64.9863
1080.49	78.2085
1083.39	55.168
1086.28	19.1777
1089.17	0.822266
1092.07	46.3774
1094.96	2.18262
1097.85	20.0259
1100.74	68.3511
1103.64	69.5786
1106.53	54.7559
1109.42	9.71338
1112.31	17.6846
1115.21	45.7598
1118.1	24.0718
1120.99	65.0229
1123.88	27.4605
1126.78	9.26367
1129.67	0.82959
1132.56	50.2964
1135.46	5.48877
1138.35	6.9585
1141.24	31.8691
1144.13	28.7803
1147.03	71.8218
1149.92	51.1602
1152.81	9.78418
1155.7	7.21094
1158.6	24.2407
1161.49	54.5073
1164.38	13.3237
1167.28	56.228
1170.17	21.8667
1173.06	34.3809
1175.95	30.1196
1178.85	50.081
1181.74	50.1934
1184.63	45.9477
1187.53	63.3599
1190.42	88.7754
1193.31	38.2534
1196.2	44.4429
1199.1	28.873
1201.99	80.8359
1204.88	60.6206
1207.77	47.3828
1210.67	29.0576
1213.56	61.7476
1216.45	63.5688
1219.34	24.5317
1222.24	78.9482
1225.13	103.108
1228.02	73.4951
1230.91	34.8926
1233.81	82.0644
1236.7	32.5855
1239.59	6.10938
1242.49	18.3232
1245.38	49.9678
1248.27	51.0679
1251.16	76.4565
1254.06	13.2949
1256.95	23.0869
1259.84	56.8423
1262.73	91.0977
1265.63	37.8603
1268.52	58.4648
1271.41	61.1514
1274.31	66.2192
1277.2	82.5229
1280.09	58.5361
1282.98	44.0269
1285.88	34.3652
1288.77	31.3281
1291.66	14.6289
1294.55	86.3774
1297.45	52.0469
1300.34	0
