Measurement: Raman, 780 nm, unoriented, Raman Data RAW
Mineral: Hingganite-(Y)
Rruff sample: R120171
Ideal chemistry: BeY^3+^(SiO_4_)(OH)
Locality: Zagi Mountain, Hameed Abad Kafoor Dheri, Peshawar, Khyber Pakhtunkhwa, Pakistan
Source: Ikram Mineralogy
Description: Dark green to brown, dependent on light source, prismatic single crystal
Measured chemistry: Be(Y_0.490_La_0.004_Ca_0.034_Pr_0.009_Nd_0.072_Sm_0.055_Eu_0.103_Gd_0.015_Tb_0.089_Dy_0.012_Ho_0.023_Er_0.002_Tm_0.017_Yb_0.014_Lu_0.001_Fe_0.037_Ca_0.006_)(SiO_4_)(OH) ; H and Be assumed
Raman shift (cm-1)	intensity
89.7532	0
93.1281	252.694
96.5029	237.258
99.8777	219.969
103.252	211.978
106.627	208.468
110.002	200.502
113.377	198.377
116.752	197.852
120.127	201.284
123.501	201.064
126.876	200.662
130.251	205.953
133.626	203.694
137.001	211.315
140.375	211.759
143.75	211.179
147.125	212.861
150.5	213.517
153.875	214.495
157.25	220.832
160.624	227.793
163.999	240.029
167.374	265.12
170.749	297.162
174.124	333.226
177.498	350.485
180.873	318.61
184.248	267.652
187.623	233.922
190.998	213.179
194.373	203.559
197.747	199.262
201.122	198.597
204.497	202.959
207.872	205.62
211.247	212.162
214.621	219.868
217.996	226.575
221.371	231.693
224.746	235.731
228.121	240.753
231.495	246.657
234.87	256.141
238.245	267.193
241.62	281.668
244.995	298.312
248.369	319.091
251.744	344.33
255.119	367.487
258.494	394.143
261.869	423.809
265.244	452.563
268.618	485.928
271.993	517.54
275.368	553.211
278.743	581.216
282.118	607.905
285.493	625.592
288.867	639.506
292.242	638.697
295.617	629.794
298.992	612.561
302.366	595.072
305.741	571.214
309.116	556.141
312.491	540.167
315.866	536.737
319.241	535.77
322.615	541.439
325.99	549.184
329.365	559.05
332.74	567.345
336.115	580.851
339.49	594.558
342.864	609.87
346.239	630.175
349.614	666.732
352.989	697.173
356.364	727.801
359.738	756.532
363.113	798.386
366.488	868.793
369.863	954.088
373.238	1065.71
376.613	1196.12
379.987	1331.51
383.362	1445.17
386.737	1499.29
390.112	1511.12
393.486	1478.03
396.861	1394.33
400.236	1301.03
403.611	1187.08
406.986	1096.68
410.361	1014.05
413.735	957.467
417.11	900.857
420.485	858.637
423.86	815.81
427.235	792.742
430.61	778.848
433.984	767.591
437.359	757.541
440.734	740.761
444.109	731.259
447.484	712.568
450.858	693.839
454.233	677.576
457.608	657.278
460.983	652.803
464.358	641.764
467.733	637.771
471.107	640.917
474.482	648.052
477.857	661.164
481.232	673.273
484.606	683.004
487.981	692.274
491.356	697.876
494.731	710.051
498.106	720.412
501.481	735.84
504.855	747.834
508.23	757.007
511.605	756.26
514.98	752.54
518.355	740.222
521.73	725.874
525.104	703.068
528.479	680.938
531.854	659.245
535.229	636.047
538.604	618.397
541.978	600.555
545.353	582.664
548.728	558.226
552.103	532.678
555.478	513.11
558.852	495.837
562.227	482.376
565.602	472.137
568.977	465.404
572.352	462.543
575.726	462.079
579.101	465.149
582.476	474.993
585.851	480.856
589.226	486.029
592.601	491.096
595.975	500.49
599.35	515.849
602.725	535.111
606.1	557.455
609.475	574.188
612.85	589.369
616.224	601.497
619.599	605.165
622.974	610.846
626.349	605.088
629.723	594.186
633.098	585.817
636.473	570.506
639.848	552.523
643.223	537.932
646.598	525.601
649.972	514.606
653.347	506.726
656.722	501.244
660.097	499.988
663.472	497.822
666.846	497.299
670.221	501.79
673.596	500.414
676.971	498.765
680.346	490.983
683.721	484.443
687.095	471.601
690.47	454.339
693.845	439.653
697.22	420.433
700.595	404.492
703.97	386.897
707.344	369.953
710.719	357.621
714.094	341.264
717.469	330.152
720.843	316.859
724.218	303.057
727.593	285.296
730.968	267.034
734.343	250.711
737.718	237.3
741.092	220.909
744.467	209.863
747.842	201.042
751.217	190.129
754.592	184.214
757.966	177.631
761.341	173.747
764.716	166.678
768.091	162.459
771.466	160.833
774.841	155.19
778.215	151.516
781.59	147.448
784.965	144.9
788.34	144.167
791.715	140.257
795.089	136.854
798.464	133.542
801.839	131.178
805.214	129.63
808.589	125.703
811.963	123.857
815.338	121.298
818.713	120.388
822.088	117.237
825.463	117.42
828.838	115.193
832.212	115.554
835.587	115.005
838.962	113.186
842.337	112.805
845.712	113.844
849.087	114.903
852.461	117.478
855.836	118.46
859.211	121.237
862.586	123.95
865.961	126.824
869.335	132.265
872.71	132.569
876.085	130.82
879.46	129.743
882.835	130.702
886.209	130.436
889.584	135.108
892.959	142.23
896.334	151.416
899.709	163.334
903.083	167.157
906.458	166.994
909.833	167.5
913.208	167.551
916.583	173.476
919.958	178.017
923.332	184.139
926.707	189.582
930.082	190.912
933.457	180.669
936.832	165.386
940.207	149.218
943.581	138.35
946.956	133.893
950.331	129.947
953.706	131.775
957.081	134.407
960.455	139.533
963.83	141.762
967.205	144.553
970.58	146.429
973.955	142.092
977.329	139.736
980.704	137.519
984.079	136.54
987.454	135.321
990.829	134.098
994.203	137.144
997.578	137.371
1000.95	137.24
1004.33	138.385
1007.7	136.455
1011.08	136.747
1014.45	137.937
1017.83	142.357
1021.2	139.539
1024.58	141.262
1027.95	142.755
1031.33	145.31
1034.7	149.839
1038.08	153.371
1041.45	155.766
1044.83	157.765
1048.2	163.415
1051.58	166.168
1054.95	169.918
1058.33	172.952
1061.7	177.72
1065.08	183.169
1068.45	187.53
1071.82	192.483
1075.2	199.736
1078.57	204.491
1081.95	213.844
1085.32	219.287
1088.7	226.691
1092.07	233.036
1095.45	242.424
1098.82	250.382
1102.2	259.552
1105.57	271.206
1108.95	283.56
1112.32	299.635
1115.7	315.312
1119.07	328.545
1122.45	347.423
1125.82	366.085
1129.2	386.828
1132.57	410.677
1135.95	433.805
1139.32	453.703
1142.69	477.632
1146.07	504.697
1149.44	534.303
1152.82	564.094
1156.19	597.145
1159.57	637.697
1162.94	680.759
1166.32	727.476
1169.69	785.076
1173.07	844.251
1176.44	906.996
1179.82	976.916
1183.19	1053.94
1186.57	1145.7
1189.94	1225.82
1193.32	1327.34
1196.69	1435.55
1200.07	1539.65
1203.44	1667.18
1206.82	1795.57
1210.19	1956.71
1213.57	2133.4
1216.94	2349.48
1220.32	2612.16
1223.69	2935.94
1227.07	3339.52
1230.44	3823.35
1233.82	4429.75
1237.19	5128.86
1240.57	5875.69
1243.94	6663.21
1247.32	7432.71
1250.69	8135.27
1254.06	8728.74
1257.44	9186.58
1260.81	9491.19
1264.19	9747.56
1267.56	9890.39
1270.94	9940.7
1274.31	9922.88
1277.69	9794.71
1281.06	9546.21
