Measurement: Raman, 532 nm, unoriented, Raman Data Processed
Mineral: Hingganite-(Y)
Rruff sample: R070466
Ideal chemistry: BeY^3+^(SiO_4_)(OH)
Locality: Tuften Quarry, Tvedalen, Larvik, Vestfold, Norway
Source: Michael Scott
Description: White prismatic crystals
Raman shift (cm-1)	intensity
172.582	0
175.475	69.1128
178.368	82.3657
181.26	58.9658
184.153	73.3564
187.046	81.6758
189.939	88.1397
192.831	140.89
195.724	146.362
198.617	176.586
201.509	155.192
204.402	179.292
207.295	160.338
210.187	157.594
213.08	159.403
215.973	103.352
218.865	147.549
221.758	182.219
224.651	148.184
227.544	170.784
230.436	113.391
233.329	113.319
236.222	83.3047
239.114	157.098
242.007	139.953
244.9	89.5791
247.792	32.2725
250.685	46.5469
253.578	111.335
256.471	60.5117
259.363	20.7334
262.256	51.0068
265.149	81.0967
268.041	48.2402
270.934	84.3369
273.827	15.3721
276.719	45.1494
279.612	45.5625
282.505	56.8008
285.398	8.21387
288.29	18.8857
291.183	9.07129
294.076	50.667
296.968	103.809
299.861	36.2842
302.754	18.0781
305.647	27.626
308.539	72.5693
311.432	85.5742
314.325	103.999
317.217	39.9277
320.11	76.0098
323.003	130.848
325.896	112.493
328.788	131.302
331.681	95.4893
334.574	38.2188
337.466	21.4736
340.359	66.7734
343.252	91.8555
346.144	59.0107
349.037	26.4463
351.93	105.277
354.822	96.6689
357.715	80.665
360.608	61.3184
363.501	43.6709
366.393	6.20312
369.286	128.369
372.179	47.6289
375.071	80.3965
377.964	104.302
380.857	40.2188
383.75	52.7217
386.642	140.606
389.535	63.9131
392.428	62.624
395.32	3.54394
398.213	48.3926
401.106	61.3047
403.998	61.8057
406.891	85.4443
409.784	50.3828
412.676	118.786
415.569	45.9551
418.462	28.2197
421.355	53.5088
424.247	73.7344
427.14	51.7178
430.033	68.8965
432.925	114.942
435.818	57.6758
438.711	57.8994
441.603	133.111
444.496	81.2256
447.389	56.4805
450.282	30.0449
453.174	63.8848
456.067	25.7725
458.96	72.6943
461.852	33.2793
464.745	7.19531
467.638	32.1572
470.531	133.06
473.423	7.06836
476.316	80.7402
479.209	151.285
482.101	148.895
484.994	137.353
487.887	16.3408
490.779	101.439
493.672	86.3838
496.565	39.1875
499.458	106.277
502.35	113.374
505.243	114.572
508.136	105.969
511.028	105.673
513.921	58.2676
516.814	95.46
519.707	145.343
522.599	110.82
525.492	0.757813
528.385	57.8496
531.277	10.9004
534.17	12.1426
537.063	69.3516
539.955	153.117
542.848	36.9316
545.741	117.484
548.634	61.1992
551.526	10.7637
554.419	64.7988
557.312	104.238
560.204	27.7617
563.097	126.715
565.99	51.3164
568.882	66.1426
571.775	34.8184
574.668	178.334
577.561	55.5449
580.453	72.6562
583.346	35.6484
586.239	29.1133
589.131	10.0273
592.024	23.2852
594.917	73.4004
597.809	94.0664
600.702	7.55664
603.595	122.512
606.487	72.7832
609.38	6.80469
612.273	96.1289
615.166	182.648
618.058	63.9102
620.951	99.1016
623.844	133.051
626.736	55.8027
629.629	111.102
632.522	163.719
635.414	115.231
638.307	151.006
641.2	67.5254
644.093	145.033
646.985	151.678
649.878	175.41
652.771	112.43
655.663	87.5586
658.556	103.481
661.449	219.361
664.341	89.7481
667.234	190.092
670.127	130.082
673.02	140.693
675.912	17.6172
678.805	146.707
681.698	184.965
684.591	58.7266
687.483	101.574
690.376	157.613
693.269	102.727
696.161	107.959
699.054	32.4238
701.947	25.0312
704.839	178.147
707.732	80.9727
710.625	23.2285
713.518	154.74
716.41	133.535
719.303	31.791
722.196	76.8203
725.088	69.1894
727.981	82.125
730.874	100.947
733.766	49.0508
736.659	21.8887
739.552	12.1328
742.444	81.2754
745.337	71.1582
748.23	4.54492
751.123	25.0273
754.015	120.231
756.908	98.0488
759.801	20.0527
762.693	99.8906
765.586	26.1035
768.479	115.369
771.371	92.7695
774.264	7.20312
777.157	146.596
780.05	34.8242
782.942	204.684
785.835	47.8926
788.728	159.303
791.62	142.231
794.513	213.328
797.406	45.0273
800.298	70.9746
803.191	67.9531
806.084	130.758
808.977	1.04297
811.869	92.5039
814.762	139.365
817.655	130.481
820.547	89.6836
823.44	146.856
826.333	77.7676
829.226	156.434
832.118	29.4336
835.011	86.5781
837.904	171.289
840.796	67.625
843.689	118.045
846.582	161.266
849.474	92.2109
852.367	63.416
855.26	74.6016
858.153	17.291
861.045	42.0645
863.938	29.709
866.831	2.58008
869.723	80.9551
872.616	22.1055
875.509	52.2812
878.401	160.723
881.294	114.861
884.187	38.9922
887.08	106.988
889.972	117.441
892.865	157.99
895.758	108.436
898.65	127.191
901.543	142.586
904.436	119.779
907.328	92.3652
910.221	121.182
913.114	162.935
916.006	108.49
918.899	132.074
921.792	75.6875
924.685	18.209
927.577	72.6953
930.47	50.9824
933.363	66.3848
936.255	13.5742
939.148	31.2891
942.041	6.8418
944.933	131.002
947.826	83.3926
950.719	195.883
953.612	155.769
956.504	105.543
959.397	76.1914
962.29	23.0781
965.182	59.3848
968.075	71.6934
970.968	97.0547
973.861	75.3926
976.753	128.023
979.646	60.6211
982.539	121.881
985.431	111.039
988.324	112.549
991.217	96.1113
994.109	63.4297
997.002	123.447
999.895	22.4297
1002.79	50.9141
1005.68	162.953
1008.57	105.846
1011.47	42.4316
1014.36	114.486
1017.25	164.879
1020.14	104.199
1023.04	58.125
1025.93	104.252
1028.82	19.2266
1031.71	70.6797
1034.61	185.949
1037.5	18.9707
1040.39	33.2188
1043.29	76.0586
1046.18	34.2383
1049.07	28.4336
1051.96	72.0566
1054.86	136.959
1057.75	211.123
1060.64	26.3516
1063.53	130.447
1066.43	140.643
1069.32	53.8633
1072.21	110.842
1075.11	70.8906
1078	110.418
1080.89	268.693
1083.78	72.7969
1086.68	104.941
1089.57	109.623
1092.46	55.2832
1095.35	92.3672
1098.25	146.291
1101.14	49.8809
1104.03	146.602
1106.92	87.5625
1109.82	329.66
1112.71	11.7363
1115.6	179.748
1118.5	125.293
1121.39	2.58398
1124.28	4.18555
1127.17	70.1777
1130.07	149.668
1132.96	55.2617
1135.85	31.2383
1138.74	122.047
1141.64	213.695
1144.53	232.938
1147.42	73.166
1150.32	2.75781
1153.21	145.988
1156.1	38.7031
1158.99	216.441
1161.89	199.389
1164.78	60.4082
1167.67	75.0781
1170.56	90.084
1173.46	129.029
1176.35	134.853
1179.24	148.285
1182.13	125.775
1185.03	143.918
1187.92	143.809
1190.81	61.6387
1193.71	225.678
1196.6	174.348
1199.49	158.916
1202.38	74.4688
1205.28	81.1504
1208.17	62
1211.06	140.58
1213.95	158.881
1216.85	87.6777
1219.74	87.4688
1222.63	89.2637
1225.53	199.06
1228.42	11.8457
1231.31	50.8926
1234.2	57.6309
1237.1	119.275
1239.99	46.3535
1242.88	90.9434
1245.77	101.689
1248.67	61.6855
1251.56	104.621
1254.45	90.4922
1257.35	171.301
1260.24	72.4492
1263.13	203.992
1266.02	117.793
1268.92	208.606
1271.81	233.731
1274.7	368.098
1277.59	94.2031
1280.49	171.519
1283.38	321.441
1286.27	232.582
1289.16	248.199
1292.06	274.438
1294.95	166.738
1297.84	200.5
1300.74	115.496
1303.63	358.68
1306.52	79.4336
1309.41	137.957
1312.31	174.973
1315.2	197.852
