Measurement: Raman, 785 nm, unoriented, Raman Data Processed
Mineral: Hingganite-(Ce)
Rruff sample: R060857
Ideal chemistry: BeCe^3+^(SiO_4_)(OH)
Locality: Tatyana pegmatite, Haldzan Buregteg massif, Mongolia
Source: Michael Scott
Description: Brown vitreous fragments
Raman shift (cm-1)	intensity
89.2256	411.736
92.6004	407.161
95.9752	333.914
99.35	336.182
102.725	357.848
106.1	295.759
109.475	320.988
112.849	359.642
116.224	365.606
119.599	385.994
122.974	655.973
126.349	1128.34
129.723	1641.25
133.098	1904.45
136.473	1827.51
139.848	2177.5
143.223	3028.67
146.597	3942.15
149.972	4386.6
153.347	4413.93
156.722	4413.06
160.097	4471.02
163.472	4848.14
166.846	5228.08
170.221	5479.9
173.596	5406.12
176.971	5466.99
180.346	5449.43
183.72	5527.97
187.095	5694.63
190.47	5742.29
193.845	5679.13
197.22	5874.09
200.595	5911.36
203.969	5935.46
207.344	6013.9
210.719	6014.92
214.094	6045.11
217.469	6137.77
220.844	6267.09
224.218	6322.58
227.593	6291.61
230.968	6297.33
234.343	6325.38
237.718	6457.34
241.092	6473.38
244.467	6461.35
247.842	6541.2
251.217	6626.94
254.592	6658.19
257.966	6825.21
261.341	6933.74
264.716	6932.84
268.091	6992.7
271.466	6953.06
274.841	7072.2
278.215	7216.91
281.59	7412.67
284.965	7443.34
288.34	7381.23
291.715	7672.44
295.089	7888.83
298.464	8007.95
301.839	8332.23
305.214	8500.11
308.589	8634.01
311.964	8711.06
315.338	8696.71
318.713	8823.16
322.088	8721.75
325.463	8797.39
328.838	8819.38
332.212	8751.98
335.587	8737.25
338.962	8577.96
342.337	8556.17
345.712	8493.22
349.087	8487.62
352.461	8494.96
355.836	8406.04
359.211	8285.85
362.586	8351.67
365.961	8153.02
369.335	8079.66
372.71	8059.03
376.085	8059.27
379.46	8010.75
382.835	8067.17
386.209	8060.07
389.584	8035.31
392.959	8131.25
396.334	8199.15
399.709	8227.94
403.084	8258.7
406.458	8278.35
409.833	8290.37
413.208	8326.62
416.583	8474.13
419.958	8454.47
423.332	8460.88
426.707	8450.4
430.082	8483.54
433.457	8463.48
436.832	8416.7
440.207	8450.92
443.581	8418.23
446.956	8355.9
450.331	8300.94
453.706	8246.04
457.081	8152.46
460.455	8116.76
463.83	8093.64
467.205	8054.24
470.58	7988.24
473.955	7906.32
477.33	7929.44
480.704	7807.2
484.079	7883.62
487.454	7826.9
490.829	7832.43
494.204	7832.23
497.579	7802.86
500.953	7758.93
504.328	7676.32
507.703	7662.72
511.078	7682.5
514.453	7658.82
517.827	7661.54
521.202	7761.02
524.577	7669.44
527.952	7635.57
531.327	7548.92
534.702	7660.62
538.076	7689.1
541.451	7684.34
544.826	7691.22
548.201	7687.02
551.576	7557.2
554.95	7604.27
558.325	7621.71
561.7	7626.39
565.075	7521.61
568.45	7415.89
571.824	7430.47
575.199	7466.16
578.574	7439.03
581.949	7394.16
585.324	7412.28
588.699	7334.14
592.073	7343.87
595.448	7234.15
598.823	7330.56
602.198	7316.44
605.573	7192.41
608.947	7141.15
612.322	7188.09
615.697	7106.36
619.072	7035.59
622.447	7031.5
625.822	6957.4
629.196	6899.98
632.571	6862.27
635.946	6762.67
639.321	6766.27
642.696	6812.61
646.071	6628.53
649.445	6592.08
652.82	6589.37
656.195	6580.6
659.57	6536.01
662.945	6414.97
666.319	6389.61
669.694	6355.1
673.069	6376.89
676.444	6277.22
679.819	6296.94
683.193	6151.45
686.568	6180.51
689.943	6133.18
693.318	6063.27
696.693	6070.37
700.068	6035.63
703.442	5978.17
706.817	5950.34
710.192	5917.59
713.567	5882.81
716.942	5886.32
720.317	5749.41
723.691	5807.62
727.066	5751.48
730.441	5756.43
733.816	5728.95
737.191	5592.94
740.565	5648.51
743.94	5647.12
747.315	5577.47
750.69	5519.33
754.065	5474.98
757.439	5434.91
760.814	5446.86
764.189	5401.13
767.564	5240.96
770.939	5470.78
774.313	5295.88
777.688	5174.96
781.063	5223.15
784.438	5221.36
787.813	5232.11
791.188	5236.5
794.562	5207.54
797.937	5054.89
801.312	5052.58
804.687	5034.65
808.062	5086.21
811.437	5113.15
814.811	5123.21
818.186	5112
821.561	5025.4
824.936	5018.59
828.311	5036.4
831.685	5109.35
835.06	5100.82
838.435	5089.8
841.81	5033.14
845.185	5026.34
848.559	5037.23
851.934	5023.5
855.309	5087.59
858.684	5078.6
862.059	5074
865.434	5016.73
868.808	5184.29
872.183	5092.31
875.558	5205.81
878.933	5167.62
882.308	5211.79
885.683	5336.08
889.057	5350.01
892.432	5431.47
895.807	5429.58
899.182	5392.24
902.557	5396.94
905.931	5362.83
909.306	5262.7
912.681	5188.15
916.056	5064.84
919.431	5030.41
922.806	5010.29
926.18	4956.02
929.555	4963.41
932.93	5108.58
936.305	4989.26
939.68	4910.5
943.054	4919.45
946.429	4925.05
949.804	4906.09
953.179	4824.32
956.554	4839.42
959.928	4841.36
963.303	4907.76
966.678	4890.35
970.053	4912.25
973.428	4889.04
976.803	4941.37
980.177	4945.45
983.552	4924.05
986.927	4934.77
990.302	4944.15
993.677	4900.56
997.052	4932.23
1000.43	4893.34
1003.8	4979.69
1007.18	4952.9
1010.55	5012.43
1013.93	5006.72
1017.3	5018.09
1020.67	4991.72
1024.05	5068.96
1027.42	5026.38
1030.8	5143.15
1034.17	5107.96
1037.55	5183.61
1040.92	5332.93
1044.3	5319.23
1047.67	5385.48
1051.05	5428.57
1054.42	5549.93
1057.8	5606.69
1061.17	5605.98
1064.55	5687.01
1067.92	5865.4
1071.3	5960.58
1074.67	6047.98
1078.05	6139.26
1081.42	6252.66
1084.8	6561.01
1088.17	6598.32
1091.55	6762.01
1094.92	6913.89
1098.3	7098.28
1101.67	7310.31
1105.05	7431.62
1108.42	7688.25
1111.8	7986.63
1115.17	8209.89
1118.55	8492.29
1121.92	8775.27
1125.3	9001.34
1128.67	9416.47
1132.04	9734.75
1135.42	10120.6
1138.79	10416.8
1142.17	10878.3
1145.54	11375.3
1148.92	11703.9
1152.29	12134.5
1155.67	12550.4
1159.04	12871
1162.42	13464.1
1165.79	13852.6
1169.17	14317.5
1172.54	14890.7
1175.92	15317.2
1179.29	15880.8
1182.67	16140
1186.04	16656.2
1189.42	17020.2
1192.79	17332
1196.17	17641
1199.54	17661.3
1202.91	17651
1206.29	17664.2
1209.66	17647.1
1213.04	17510.7
1216.41	17223.8
1219.79	16942.1
1223.16	16503.2
1226.54	16101.4
1229.91	15609.1
1233.29	15201.7
1236.66	14609.2
1240.04	14265.7
1243.41	14088.6
1246.79	13886.7
1250.16	13536.8
1253.54	13267.8
1256.91	13291.1
1260.29	13235
1263.66	13382.5
1267.04	13551
1270.41	13575.8
