Measurement: Raman, 532 nm, unoriented, Raman Data Processed
Mineral: Hoelite
Rruff sample: R060874
Ideal chemistry: C_14_H_8_O_2_
Locality: Kladno, Central Bohemia Region, Bohemia, Czech Republic
Source: Michael Scott
Description: Straw-yellow acicular crystals
Raman shift (cm-1)	intensity
117.666	0
121.041	457.808
124.416	1932.49
127.79	2172.9
131.165	1268.03
134.54	1182.19
137.915	1908.99
141.29	2643.37
144.665	2761.08
148.039	2427.87
151.414	2097.58
154.789	2023.92
158.164	2020.62
161.539	2236.17
164.913	2140.03
168.288	1867.67
171.663	1667.84
175.038	1573.09
178.413	1443.44
181.788	1323.63
185.162	1261.65
188.537	1101.93
191.912	906.904
195.287	726.797
198.662	576.357
202.036	454.135
205.411	525.012
208.786	409.856
212.161	288.529
215.536	298.102
218.911	171.992
222.285	40.0527
225.66	56.1387
229.035	17.791
232.41	23.4766
235.785	66.082
239.159	47.8398
242.534	61.4668
245.909	99.1465
249.284	150.523
252.659	53.3379
256.033	73.0234
259.408	139.098
262.783	100.807
266.158	136.506
269.533	22.166
272.908	9.70312
276.282	95.457
279.657	153.772
283.032	125.57
286.407	112.912
289.782	32.873
293.156	56.7832
296.531	3.61328
299.906	94.8106
303.281	327.746
306.656	362.914
310.031	351.965
313.405	366.988
316.78	257.09
320.155	60.5
323.53	350.715
326.904	197.188
330.279	317.027
333.654	295.051
337.029	260.484
340.404	353.633
343.779	342.957
347.153	273.551
350.528	294.621
353.903	478.453
357.278	382.227
360.653	134.762
364.027	133.977
367.402	60.9336
370.777	23.293
374.152	168.629
377.527	368.746
380.902	87.0977
384.276	247.648
387.651	287.508
391.026	291.152
394.401	288.262
397.776	137.734
401.151	241.625
404.525	109.438
407.9	34.9219
411.275	235.844
414.65	402.336
418.024	507.781
421.399	299.438
424.774	272.762
428.149	162.82
431.524	309.477
434.899	23.918
438.273	120.633
441.648	333.992
445.023	238.699
448.398	73.3359
451.773	212.856
455.147	236.734
458.522	310.477
461.897	232.602
465.272	89.5625
468.647	310.644
472.022	497.57
475.396	415.961
478.771	8.66406
482.146	186.297
485.521	636.055
488.896	489.453
492.27	116.242
495.645	107.141
499.02	130.523
502.395	28.3359
505.77	139.867
509.144	550.602
512.519	223.125
515.894	333.875
519.269	679.266
522.644	1054.13
526.019	633.445
529.393	676.773
532.768	339.828
536.143	365.594
539.518	605.523
542.893	889.688
546.268	932.906
549.642	746.586
553.017	644.727
556.392	460.383
559.767	421.906
563.141	574.227
566.516	700.055
569.891	979.977
573.266	646.336
576.641	435.203
580.016	50.1562
583.39	206.109
586.765	165.836
590.14	244.57
593.515	64.6016
596.89	32.125
600.264	49.7656
603.639	110.148
607.014	486.953
610.389	578.078
613.764	847.656
617.139	809.391
620.513	1037.59
623.888	1559.16
627.263	1301.33
630.638	1163.48
634.013	945.078
637.387	445.453
640.762	358.906
644.137	602.047
647.512	790.547
650.887	1268.49
654.261	1125.27
657.636	733.234
661.011	286.383
664.386	38.7422
667.761	67.2188
671.135	546.422
674.51	74.7969
677.885	114.781
681.26	26.3125
684.635	613.781
688.01	511.594
691.384	633.141
694.759	691.5
698.134	757.938
701.509	180.828
704.884	183.609
708.259	155.5
711.633	211.797
715.008	153.625
718.383	776.812
721.758	889
725.133	870.281
728.507	933.312
731.882	875.547
735.257	792.562
738.632	1104.08
742.007	915.25
745.381	1789.19
748.756	2534.42
752.131	1747.94
755.506	2079.17
758.881	1691.89
762.255	1015.77
765.63	1262.14
769.005	2132.97
772.38	3122.62
775.755	2419.69
779.13	2095.5
782.504	2483.91
785.879	2689.33
789.254	3046.98
792.629	3748.92
796.004	3851.92
799.378	3549.14
802.753	3487.97
806.128	3869.7
809.503	4198.39
812.878	4135.59
816.253	4332.88
819.627	4311.72
823.002	4488.88
826.377	4881.92
829.752	5203.2
833.127	4211.45
836.501	3495.92
839.876	2981.14
843.251	2479.16
846.626	2073.48
850.001	1004.88
853.375	8.78125
856.75	145.906
860.125	853.062
863.5	900.594
866.875	530.469
870.25	80.9219
873.624	100.875
876.999	145.906
880.374	347.875
883.749	374.531
887.124	653.578
890.498	889.609
893.873	2079.64
897.248	2437.34
900.623	1289.73
903.998	699.109
907.372	608.734
910.747	194.547
914.122	8.78125
917.497	41.9219
920.872	420.062
924.246	1432.41
927.621	2669.88
930.996	1772.69
934.371	864.781
937.746	790.609
941.121	567.109
944.495	371.281
947.87	206.594
951.245	347.188
954.62	137.234
957.995	139.375
961.37	442.672
964.744	1179.61
968.119	391.609
971.494	716.25
974.869	355.906
978.244	1094.75
981.618	1248.03
984.993	983.625
988.368	630.75
991.743	767.438
995.118	511.375
998.492	955.344
1001.87	1779.38
1005.24	2377.66
1008.62	1771.78
1011.99	1985.81
1015.37	1707.47
1018.74	1262.69
1022.12	1759.41
1025.49	3133.81
1028.87	3588.5
1032.24	3192.66
1035.62	2720.22
1038.99	3661.03
1042.37	3024.44
1045.74	1762.5
1049.12	2166.66
1052.49	3581.88
1055.86	3424.31
1059.24	3299.75
1062.61	2164.72
1065.99	1601.88
1069.36	1500.25
1072.74	2238.12
1076.11	1599.75
1079.49	675.281
1082.86	765.25
1086.24	1710
1089.61	1707.94
1092.99	1824.25
1096.36	2327.25
1099.74	2345.56
1103.11	1958.41
1106.49	2034.41
1109.86	1394.47
1113.24	1117.53
1116.61	1411.16
1119.99	350.094
1123.36	79.375
1126.73	662.406
1130.11	2314.31
1133.48	2577.31
1136.86	1687.69
1140.23	1381.75
1143.61	1267.84
1146.98	539.906
1150.36	317.562
1153.73	1622.69
1157.11	1707.75
1160.48	1376.19
1163.86	512.062
1167.23	994.531
1170.61	336.438
1173.98	1622.38
1177.36	1850.09
1180.73	1426.22
1184.11	2493.44
1187.48	1846.88
1190.86	155.219
1194.23	342.625
1197.61	117.875
1200.98	373.312
1204.36	366.031
1207.73	595.844
1211.11	1180.12
1214.48	1558.38
1217.86	876.156
1221.23	788.562
1224.61	896
1227.98	1473.03
1231.36	2150.34
1234.73	1998.84
1238.1	2851.22
1241.48	2483.69
1244.85	2395.78
1248.23	3783.09
1251.6	2229.16
1254.98	1612.66
1258.35	1943.66
1261.73	932.875
1265.1	248.906
1268.48	1435.28
1271.85	3315.34
1275.23	3466.88
1278.6	2221.47
1281.98	1162.31
1285.35	1503.72
1288.73	1641.81
1292.1	747.5
1295.48	8.875
