Measurement: Raman, 785 nm, unoriented, Raman Data RAW
Mineral: Hsianghualite
Rruff sample: R060722
Ideal chemistry: Li_2_Ca_3_(BeSiO_4_)_3_F_2_
Locality: Xianghualing mine near Zenzhou, Hunan Province, China
Source: Bob Jenkins and George Guanghua Liu
Description: Colorless rounded crystals and fragments
Raman shift (cm-1)	intensity
126.349	4969.35
129.242	7388.66
132.135	9292.15
135.027	9473.86
137.92	9226.15
140.813	10858.3
143.705	14546.1
146.598	19062.4
149.491	22532.9
152.383	23950.1
155.276	24052
158.169	24334.5
161.062	25611
163.954	27521.1
166.847	29898
169.74	31304.8
172.632	32280.7
175.525	33117.4
178.418	33393.9
181.31	33791.8
184.203	33760.1
187.096	34126.2
189.989	35058.7
192.881	36535.4
195.774	38491.3
198.667	40427.9
201.559	42328.9
204.452	44239.2
207.345	46174.5
210.238	48980.7
213.13	52162.9
216.023	53753
218.916	51300.3
221.808	47214.5
224.701	43887.9
227.594	42207.2
230.486	41694.1
233.379	41584.3
236.272	41792.7
239.165	41459.1
242.057	42178.7
244.95	43942.6
247.843	45732.6
250.735	46309.3
253.628	46212.3
256.521	45728.4
259.413	45659.7
262.306	46483.8
265.199	48563
268.091	50784.7
270.984	53511.1
273.877	56593.3
276.77	59778.8
279.662	62166.3
282.555	63617.2
285.448	64050.9
288.34	64280.3
291.233	65529.6
294.126	68470.6
297.019	72794.7
299.911	79022.4
302.804	86684.2
305.697	95116.4
308.589	103166
311.482	108796
314.375	108861
317.267	103050
320.16	93689.8
323.053	83956.4
325.945	76760.9
328.838	71957.5
331.731	69082.6
334.624	67160.8
337.516	66278.5
340.409	65441.9
343.302	66774.5
346.194	68073.2
349.087	68575.3
351.98	67184.9
354.873	64897
357.765	62487.5
360.658	60559.2
363.551	59689.8
366.443	58889.2
369.336	58462
372.229	57430.4
375.121	55960.5
378.014	54050.2
380.907	52316.3
383.8	50813.9
386.692	50554.9
389.585	50586
392.478	51514.8
395.37	52839.3
398.263	54482.1
401.156	54849.9
404.048	54635.9
406.941	53974.1
409.834	52922.2
412.726	51309.5
415.619	49958.8
418.512	48579.8
421.405	47417.5
424.297	46076.7
427.19	45105.7
430.083	44167
432.975	43555.5
435.868	42883.3
438.761	42308.4
441.654	41517.8
444.546	41085.8
447.439	40622.6
450.332	40120.4
453.224	39575.5
456.117	39082.4
459.01	39011.8
461.902	38917.9
464.795	38983.5
467.688	38994.6
470.58	39008.5
473.473	39018.5
476.366	38787
479.259	38741.5
482.151	38447.6
485.044	38646.9
487.937	38941.2
490.829	39002
493.722	39130.2
496.615	39210.6
499.507	39246.7
502.4	39439.6
505.293	39417.3
508.186	39815.8
511.078	39930.6
513.971	39943.5
516.864	39789.5
519.756	39857.5
522.649	39955.5
525.542	39693.1
528.434	39751.6
531.327	39520.9
534.22	39462.4
537.113	39764.2
540.005	40199.7
542.898	40575.9
545.791	39852.5
548.683	38923.4
551.576	38519.5
554.469	38531.6
557.361	38644.1
560.254	38516.5
563.147	38077.9
566.04	37513.9
568.932	36896.6
571.825	36325
574.718	35769.3
577.61	35503.1
580.503	35029.2
583.396	34650.1
586.288	34405.9
589.181	34066.2
592.074	33751.7
594.967	33535.1
597.859	33378.3
600.752	33188.9
603.645	32897.5
606.537	33128.2
609.43	32973.7
612.323	32491.2
615.216	32070.2
618.108	32027.2
621.001	31812.4
623.894	31699.6
626.786	31573.3
629.679	31396.7
632.572	31344.8
635.464	31343.6
638.357	31186.6
641.25	31167.9
644.143	31137.7
647.035	31047.7
649.928	31098.6
652.821	31090.1
655.713	31505.1
658.606	31136.4
661.499	31116
664.391	30895.8
667.284	30829
670.177	30738.6
673.069	30787.1
675.962	30869.4
678.855	31011.3
681.748	30902.6
684.64	31096.2
687.533	31315.7
690.426	31534
693.318	31935
696.211	32205.4
699.104	32614.3
701.996	32796.8
704.889	32780.9
707.782	32847.3
710.675	32579.4
713.567	32568.6
716.46	32503.5
719.353	32305.3
722.245	32522.1
725.138	32128.9
728.031	32031.4
730.923	31920.1
733.816	32034.8
736.709	32378.2
739.602	32574.6
742.494	33193.1
745.387	33744.2
748.28	34372.2
751.172	34452.8
754.065	34223.9
756.958	33479.7
759.851	32792.3
762.743	31953.3
765.636	31516.5
768.529	31141.2
771.421	30755.4
774.314	30591.2
777.207	30281.4
780.099	30274.5
782.992	30377.9
785.885	30545.8
788.778	30722.8
791.67	30835.4
794.563	31117.8
797.456	31396.9
800.348	31777.2
803.241	32474.5
806.134	33002.2
809.026	33945.3
811.919	34711.3
814.812	35388.3
817.705	35650.5
820.597	35748.9
823.49	35740.7
826.383	35587.4
829.275	35798.8
832.168	35901
835.061	36487.9
837.953	37291.3
840.846	38020.5
843.739	38852.7
846.631	39464.1
849.524	39868.6
852.417	39455.2
855.31	38723.6
858.202	37334.7
861.095	36240
863.988	34905.1
866.88	33835.3
869.773	32997.7
872.666	32275.7
875.558	31791
878.451	31444.3
881.344	31172
884.237	31115
887.129	31467
890.022	32236.8
892.915	32802.3
895.807	32037.8
898.7	30693.5
901.593	30024.4
904.486	29752.2
907.378	29608.8
910.271	29629.8
913.164	29763.6
916.056	29553.5
918.949	29849.2
921.842	30624
924.734	31763.9
927.627	33231.8
930.52	33210.3
933.413	31548.5
936.305	30179.4
939.198	29561.9
942.091	29294.4
944.983	29286.2
947.876	29410.6
950.769	29539.2
953.661	29658.9
956.554	29817.5
959.447	29768.8
962.34	29728.5
965.232	29848.3
968.125	30144.2
971.018	30516.8
973.91	30547.5
976.803	30301.7
979.696	30464.8
982.588	30579.9
985.481	30666.5
988.374	30601.8
991.266	30735.2
994.159	30951.4
997.052	31145.2
999.945	31380.6
1002.84	31719.5
1005.73	31712.8
1008.62	32529.8
1011.51	32328
1014.41	32496
1017.3	32520.8
1020.19	32717.1
1023.09	32807.4
1025.98	32940
1028.87	33099.2
1031.76	33281
1034.66	33707.4
1037.55	33803.3
1040.44	34314.2
1043.34	34400.5
1046.23	34708.3
1049.12	34911.7
1052.01	34966.7
1054.91	35131.1
1057.8	35634.1
1060.69	35762.9
1063.58	36053.6
1066.48	36264.8
1069.37	36546.7
1072.26	37036
1075.15	37512.5
1078.05	38116.3
1080.94	38512.7
1083.83	39180.9
1086.73	39426.6
1089.62	40004.5
1092.51	40600.1
1095.4	41141.5
1098.3	41706.2
1101.19	42177.8
1104.08	42760.8
1106.97	43276.5
1109.87	44103.2
1112.76	44942.2
1115.65	45803.6
1118.55	46552.9
1121.44	47279.2
1124.33	47921.4
1127.22	48837.5
1130.12	49796.2
1133.01	50486.5
1135.9	51062.7
1138.79	51917.3
1141.69	52860.4
1144.58	53625.7
1147.47	54561.3
1150.37	55396.2
1153.26	56257.9
