Measurement: Raman, 785 nm, unoriented, Raman Data Processed
Mineral: Hulsite
Rruff sample: R070453
Ideal chemistry: Fe^2+^_2_Fe^3+^O_2_(BO_3_)
Locality: Titovskoye B deposit, Tas-Khayakhtakh Range, Polar Yakutia, Saha Republic (Sakha Republic; Yakutia), Eastern-Siberian Region, Russia
Source: Michael Scott
Description: Aggregate of sub-metallic black platy material
Raman shift (cm-1)	intensity
162.973	0
165.866	2.75635
168.759	31.1645
171.651	53.1228
174.544	40.5293
177.437	67.8276
180.329	118.698
183.222	222.583
186.115	289.912
189.008	383.428
191.9	424.76
194.793	422.2
197.686	491.065
200.578	475.95
203.471	553.866
206.364	525.723
209.256	565.592
212.149	529.665
215.042	578.842
217.935	563.356
220.827	584.483
223.72	500.947
226.613	331.637
229.505	283.335
232.398	180.452
235.291	141.665
238.184	129.951
241.076	98.731
243.969	107.839
246.862	68.7527
249.754	27.9076
252.647	24.2268
255.54	56.3801
258.432	18.2168
261.325	21.1069
264.218	30.2212
267.111	20.3489
270.003	21.0444
272.896	30.855
275.789	3.42383
278.681	17.1013
281.574	0.51001
284.467	14.6226
287.359	13.3184
290.252	10.0317
293.145	6.66772
296.038	39.843
298.93	14.5239
301.823	70.2022
304.716	41.2375
307.608	54.6504
310.501	69.7956
313.394	38.9415
316.286	50.6638
319.179	64.9412
322.072	48.2036
324.964	30.7918
327.857	42.334
330.75	41.4761
333.643	41.7
336.535	35.2918
339.428	5.06909
342.321	1.45557
345.213	57.3293
348.106	26.0894
350.999	23.9536
353.892	18.6421
356.784	34.8279
359.677	22.8684
362.57	5.40747
365.462	36.5359
368.355	2.56909
371.248	22.208
374.14	45.4778
377.033	47.5432
379.926	22.9477
382.818	23.2285
385.711	24.3332
388.604	36.6775
391.497	0.949707
394.389	26.1509
397.282	33.1914
400.175	2.4956
403.067	52
405.96	3.38428
408.853	13.7407
411.745	9.65161
414.638	2.01636
417.531	35.4795
420.424	18.4477
423.316	56.168
426.209	26.2268
429.102	7.84766
431.994	57.7549
434.887	37.4558
437.78	33.2144
440.673	57.9082
443.565	52.125
446.458	71.4497
449.351	94.7134
452.243	69.0642
455.136	89.2878
458.029	85.2271
460.921	51.3606
463.814	17.7551
466.707	50.7105
469.599	49.3132
472.492	61.5625
475.385	60.0571
478.278	43.2119
481.17	64.3562
484.063	5.49585
486.956	43.7351
489.848	37.9397
492.741	81.5615
495.634	89.167
498.526	38.4702
501.419	58.7322
504.312	60.6284
507.205	70.4941
510.097	59.6794
512.99	63.062
515.883	57.0269
518.775	35.343
521.668	43.3525
524.561	3.39893
527.454	10.8509
530.346	30.6945
533.239	32.193
536.132	20.8231
539.024	27.7612
541.917	3.66065
544.81	8.37451
547.702	37.8645
550.595	17.5614
553.488	19.3171
556.38	26.7993
559.273	13.544
562.166	10.4334
565.059	13.3894
567.951	11.5221
570.844	1.46948
573.737	46.7661
576.629	33.4443
579.522	27.689
582.415	31.2711
585.308	54.3617
588.2	30.648
591.093	33.9717
593.986	34.6154
596.878	31.2605
599.771	57.4801
602.664	37.8151
605.556	2.02869
608.449	44.8834
611.342	20.6956
614.235	55.0426
617.127	30.1903
620.02	35.2943
622.913	57.6879
625.805	57.8242
628.698	38.3188
631.591	49.7274
634.483	56.8911
637.376	49.3778
640.269	44.5752
643.162	64.792
646.054	46.7836
648.947	72.195
651.84	41.5543
654.732	69.0304
657.625	29.1299
660.518	61.2295
663.41	27.6602
666.303	34.0007
669.196	4.03076
672.088	31.9119
674.981	27.5626
677.874	12.5328
680.767	22.1725
683.659	37.358
686.552	23.629
689.445	55.6304
692.337	52.6887
695.23	6.74683
698.123	25.949
701.015	40.5997
703.908	39.178
706.801	48.061
709.694	16.3619
712.586	34.1754
715.479	28.3253
718.372	14.1649
721.264	30.9487
724.157	19.3236
727.05	44.2811
729.942	5.31433
732.835	43.9591
735.728	47.1239
738.621	48.4705
741.513	18.6699
744.406	53.964
747.299	41.6298
750.191	8.92664
753.084	33.884
755.977	19.1005
758.87	21.9425
761.762	4.3905
764.655	25.0845
767.548	43.1964
770.44	11.1668
773.333	34.2302
776.226	13.4821
779.118	11.9147
782.011	47.4176
784.904	27.8335
787.797	35.436
790.689	10.7752
793.582	42.7784
796.475	15.2456
799.367	9.54578
802.26	25.1423
805.153	0.280396
808.045	20.5825
810.938	41.6594
813.831	66.884
816.723	10.766
819.616	51.2011
822.509	25.4805
825.402	7.88733
828.294	5.97107
831.187	1.3374
834.08	27.1237
836.972	0.900757
839.865	13.5862
842.758	38.5507
845.65	23.2136
848.543	33.2057
851.436	31.7638
854.329	0.405273
857.221	9.9447
860.114	38.2194
863.007	20.7201
865.899	1.98572
868.792	6.05371
871.685	18.9928
874.577	29.3946
877.47	42.8221
880.363	31.4681
883.256	26.0691
886.148	13.3616
889.041	30.4676
891.934	27.3949
894.826	2.81714
897.719	26.2576
900.612	60.6793
903.505	25.2886
906.397	1.3446
909.29	18.376
912.183	25.407
915.075	10.9796
917.968	30.2382
920.861	52.5384
923.753	46.721
926.646	49.6594
929.539	52.8547
932.432	25.6303
935.324	43.6326
938.217	28.7628
941.11	53.5102
944.002	23.3394
946.895	30.9761
949.788	13.4957
952.68	34.0394
955.573	47.5883
958.466	30.4825
961.359	32.5826
964.251	19.4781
967.144	25.4747
970.037	61.1953
972.929	63.389
975.822	39.2698
978.715	10.1185
981.607	38.4228
984.5	16.2192
987.393	15.0432
990.285	3.00757
993.178	19.3665
996.071	37.0145
998.964	41.1141
1001.86	32.1803
1004.75	12.3716
1007.64	55.7639
1010.53	75.2803
1013.43	11.6875
1016.32	1.58972
1019.21	28.8429
1022.11	24.3585
1025	41.9353
1027.89	66.093
1030.78	59.4951
1033.68	22.3459
1036.57	1.72754
1039.46	29.2709
1042.35	25.0109
1045.25	60.4884
1048.14	19.9236
1051.03	22.5618
1053.92	29.5885
1056.82	17.8658
1059.71	23.2982
1062.6	12.3247
1065.5	2.88684
1068.39	30.8905
1071.28	27.1724
1074.17	0.139038
1077.07	13.9635
1079.96	33.1971
1082.85	29.8765
1085.74	55.5111
1088.64	23.1008
1091.53	32.5256
1094.42	1.95166
1097.32	26.1768
1100.21	14.2953
1103.1	40.6763
1105.99	12.0992
1108.89	6.23303
1111.78	7.62
1114.67	8.97302
1117.56	37.0825
1120.46	19.2966
1123.35	10.9891
1126.24	44.1277
1129.13	38.6534
1132.03	11.3933
1134.92	33.2106
1137.81	4.19739
1140.71	15.7151
1143.6	18.7469
1146.49	31.6466
1149.38	5.18909
1152.28	24.7284
1155.17	64.2443
1158.06	7.72327
1160.95	11.816
1163.85	16.499
1166.74	36.7706
1169.63	47.8313
1172.53	43.8171
1175.42	27.9479
1178.31	29.5721
1181.2	6.54688
1184.1	14.7638
1186.99	54.5427
1189.88	24.9521
1192.78	32.233
1195.67	27.6674
1198.56	42.3876
1201.45	51.4364
1204.35	27.3762
1207.24	38.3525
1210.13	35.6198
1213.02	55.4042
1215.92	34.2596
1218.81	71.0933
1221.7	61.6331
1224.59	72.3196
1227.49	6.65771
1230.38	25.5604
1233.27	43.8158
1236.16	47.9988
1239.06	35.5619
1241.95	0.231567
