Measurement: Raman, 785 nm, unoriented, Raman Data Processed
Mineral: Iimoriite-(Y)
Rruff sample: R070457
Ideal chemistry: Y^3+^_2_(SiO_4_)(CO_3_)
Locality: I and L No. 4 claim, Bokan Mountain, Prince of Wales Island, Prince of Wales-Outer Ketchikan Borough, Alaska, USA
Source: Michael Scott
Description: Colorless to tan unconsolidated grains and fragments
Raman shift (cm-1)	intensity
171.058	0
173.468	228.973
175.879	318.113
178.289	183.672
180.7	161.973
183.111	35.4766
185.521	10.8281
187.932	52.8359
190.342	177.211
192.753	327.863
195.163	295.106
197.574	778.582
199.985	1514.16
202.395	2022.51
204.806	2511.03
207.216	3054.38
209.627	3308.3
212.038	3763
214.448	3981.6
216.859	4795.69
219.269	5135.45
221.68	5626.18
224.09	6084.91
226.501	6406.34
228.912	6523.02
231.322	6470.3
233.733	6511.12
236.143	6494.22
238.554	6935.54
240.965	6945.38
243.375	6385.94
245.786	5695.94
248.196	4950.51
250.607	4128.13
253.018	3635.84
255.428	2849.6
257.839	2247.22
260.249	1540.79
262.66	910.008
265.07	437.062
267.481	275.035
269.892	207.836
272.302	539.68
274.713	531.383
277.123	242.781
279.534	134.898
281.945	657.481
284.355	1137.31
286.766	1952.24
289.176	2162.32
291.587	2644.73
293.997	3000.29
296.408	3167.79
298.819	3348.91
301.229	3787.8
303.64	4243.08
306.05	5060.83
308.461	5807.48
310.872	6590.27
313.282	7593.04
315.693	8521.09
318.103	9170.34
320.514	8746.11
322.924	8789.21
325.335	8604.59
327.746	8744.89
330.156	8164.67
332.567	7732.47
334.977	7549.09
337.388	7623.77
339.798	7616.12
342.209	8002.69
344.62	8450.16
347.03	9025.66
349.441	9377.41
351.851	9359.1
354.262	8873.42
356.673	8235.49
359.083	7534.11
361.494	6817.21
363.904	6461.25
366.315	6033.55
368.726	5643.48
371.136	5764.3
373.547	5732.16
375.957	5680.21
378.368	5592.26
380.778	5423.59
383.189	5156.5
385.6	4847.95
388.01	4443.58
390.421	3742.11
392.831	3538.7
395.242	2979.1
397.652	2640.95
400.063	2139.39
402.474	1776.44
404.884	1433.96
407.295	1569.23
409.705	1380.3
412.116	1418.15
414.527	1380.75
416.937	1317.5
419.348	1345.38
421.758	948.945
424.169	420.356
426.579	198.188
428.99	520.684
431.401	543.918
433.811	416.32
436.222	225.559
438.632	108.418
441.043	79.9141
443.454	289.977
445.864	408.816
448.275	379.453
450.685	371.914
453.096	331.562
455.507	335.223
457.917	250.93
460.328	182.672
462.738	292.981
465.149	202.432
467.559	139.65
469.97	221.83
472.381	361.67
474.791	396.529
477.202	439.254
479.612	680.82
482.023	774.477
484.433	841.803
486.844	999.572
489.255	1175.51
491.665	1039.91
494.076	1147.17
496.486	1252.1
498.897	1539.96
501.308	1710.47
503.718	2080.83
506.129	2366.28
508.539	2745.61
510.95	2946.97
513.361	3099.89
515.771	3136.73
518.182	3187.43
520.592	3257.92
523.003	3299.88
525.413	3297.63
527.824	3383.11
530.235	3133.45
532.645	2945.72
535.056	2583.51
537.466	2393.95
539.877	2249.21
542.288	1977.82
544.698	1911.57
547.109	1726.16
549.519	1642.02
551.93	1443.99
554.34	1393.26
556.751	1239.86
559.162	1283.13
561.572	1157.05
563.983	1160.08
566.393	1202.56
568.804	1159.45
571.215	1426.39
573.625	1481.42
576.036	1525.14
578.446	1497.66
580.857	1468.73
583.267	1360.97
585.678	1324.44
588.089	1344.82
590.499	1199.06
592.91	1080.64
595.32	1053.49
597.731	953.838
600.141	853.615
602.552	746.311
604.963	556.352
607.373	432.232
609.784	308.777
612.194	106.869
614.605	59.043
617.016	63.6348
619.426	16.0742
621.837	57.5625
624.247	8.84277
626.658	105.337
629.068	142.984
631.479	78.7197
633.89	12.3242
636.3	13.1435
638.711	2.62598
641.121	1.08496
643.532	90.4082
645.943	6.73633
648.353	36.0322
650.764	15.2988
653.174	2.88184
655.585	65.333
657.995	33.9815
660.406	16.4941
662.817	35.6504
665.227	9.81152
667.638	53.3848
670.048	49.0791
672.459	46.2227
674.87	17.5059
677.28	41.0576
679.691	60.0762
682.101	47.918
684.512	9.86719
686.923	93.2588
689.333	48.1699
691.744	149.9
694.154	147.046
696.565	121.686
698.975	36.1543
701.386	16.375
703.797	109.159
706.207	71.1709
708.618	224.291
711.028	243.215
713.439	381.533
715.85	424.973
718.26	542.422
720.671	687.258
723.081	882.384
725.492	1024.84
727.902	1188.68
730.313	1359.49
732.724	1394.38
735.134	1476.31
737.545	1458.39
739.955	1544.03
742.366	1662.13
744.777	1725.67
747.187	1682.15
749.598	1760.66
752.008	1782.59
754.419	1796.64
756.829	1793.33
759.24	1684.76
761.651	1691.73
764.061	1667.47
766.472	1564.85
768.882	1315.49
771.293	1266.49
773.703	1106.26
776.114	1031
778.525	1005.85
780.935	869.247
783.346	744.493
785.756	593.132
788.167	537.794
790.578	526.043
792.988	443.197
795.399	435.323
797.809	339.504
800.22	362.93
802.63	347.116
805.041	342.693
807.452	302.059
809.862	231.605
812.273	190.286
814.683	126.464
817.094	174.523
819.505	121.44
821.915	64.3042
824.326	119.858
826.736	120.262
829.147	147.603
831.557	153.882
833.968	236.678
836.379	177.427
838.789	87.4761
841.2	37.8394
843.61	6.27881
846.021	121.549
848.432	79.6294
850.842	45.6397
853.253	23.5718
855.663	27.8023
858.074	12.811
860.484	6.24805
862.895	39.5029
865.306	38.9346
867.716	209.556
870.127	299.913
872.537	444.164
874.948	707.896
877.359	1008.11
879.769	1373.04
882.18	1702.6
884.59	1800.46
887.001	1472.31
889.411	929.552
891.822	575.739
894.233	364.792
896.643	246.625
899.054	137.064
901.464	141.957
903.875	74.4692
906.285	21.6616
908.696	21.417
911.107	31.2559
913.517	25.2642
915.928	0.755859
918.338	5.09521
920.749	75.2393
923.16	95.9858
925.57	183.364
927.981	247.814
930.391	381.013
932.802	281.65
935.212	219.233
937.623	108.293
940.034	104.216
942.444	86.1426
944.855	138.386
947.265	108.688
949.676	169.516
952.087	147.387
954.497	203.365
956.908	252.11
959.318	297.358
961.729	356.835
964.139	480.684
966.55	537.299
968.961	762.509
971.371	858.845
973.782	1124.3
976.192	1285.88
978.603	1312.25
981.014	1051.99
983.424	863.592
985.835	813.278
988.245	790.749
990.656	751.985
993.067	824.733
995.477	811.572
997.888	818.032
1000.3	844.07
1002.71	901.335
1005.12	913.576
1007.53	901.384
1009.94	1016.89
1012.35	1019.53
1014.76	1092.84
1017.17	1170.95
1019.58	1243.16
1021.99	1296.54
1024.4	1375.48
1026.82	1395.9
1029.22	1430.79
1031.64	1484.33
1034.05	1508.26
1036.46	1434.94
1038.87	1354.92
1041.28	1422.06
1043.69	1334.64
1046.1	1199.9
1048.51	1103.5
1050.92	1002.52
1053.33	879.903
1055.74	750.476
1058.15	635.404
1060.56	504.793
1062.97	360.613
1065.38	164.68
1067.8	66.6816
1070.2	68.562
1072.62	102.059
1075.03	27.7705
1077.44	1.75
1079.85	31.6519
1082.26	127.279
1084.67	104.065
1087.08	230.644
1089.49	431.899
1091.9	647.842
1094.31	1190.24
1096.72	2064.49
1099.13	3084.91
1101.54	4822.82
1103.95	6174.99
1106.36	3673.5
1108.78	1285.84
1111.18	253.431
1113.6	41.3184
1116.01	138.59
1118.42	280.228
1120.83	200.496
1123.24	94.0625
1125.65	0
