Measurement: Raman, 532 nm, unoriented, Raman Data Processed
Mineral: Iimoriite-(Y)
Rruff sample: R070457
Ideal chemistry: Y^3+^_2_(SiO_4_)(CO_3_)
Locality: I and L No. 4 claim, Bokan Mountain, Prince of Wales Island, Prince of Wales-Outer Ketchikan Borough, Alaska, USA
Source: Michael Scott
Description: Colorless to tan unconsolidated grains and fragments
Raman shift (cm-1)	intensity
137.62	0
140.513	1.31397
143.406	289.286
146.298	380.657
149.191	454.127
152.084	554.137
154.976	727.584
157.869	898.714
160.762	784.019
163.655	731.325
166.547	564.37
169.44	603.604
172.333	634.842
175.225	733.375
178.118	774.195
181.011	827.876
183.904	997.418
186.796	1198.57
189.689	1105.88
192.582	981.993
195.474	932.831
198.367	891.845
201.26	1130.12
204.153	1267.69
207.045	853.75
209.938	582.409
212.831	469.808
215.723	635.876
218.616	907.999
221.509	1248.02
224.401	1774.19
227.294	2064.6
230.187	1818.82
233.079	1509.76
235.972	1386.71
238.865	1675.18
241.758	1706.88
244.65	1007.32
247.543	373.084
250.436	62.0474
253.328	127.212
256.221	187.42
259.114	142.531
262.007	8.69434
264.899	56.977
267.792	256.192
270.685	68.7852
273.577	12.6577
276.47	264.413
279.363	750.202
282.255	1333.95
285.148	2196.46
288.041	2567.06
290.933	2553.56
293.826	2524.21
296.719	2098.72
299.612	1972.6
302.504	2599.34
305.397	3925.05
308.29	5952.65
311.182	9097.11
314.075	12848.4
316.968	16245.6
319.861	18241
322.753	18517
325.646	17274.7
328.539	13943.1
331.431	9854.6
334.324	6525.02
337.217	4590.59
340.109	3760.46
343.002	3913.57
345.895	4774.79
348.788	6079.95
351.68	7115.78
354.573	7105.84
357.466	5948.11
360.358	3914.64
363.251	1441.32
366.144	45.6758
369.036	420.231
371.929	202.785
374.822	704.157
377.714	2271.11
380.607	4479.22
383.5	7198.5
386.393	10114
389.285	12021.4
392.178	11917
395.071	10564.7
397.963	10119.4
400.856	11980.8
403.749	15169.9
406.642	18896.2
409.534	21407.7
412.427	21412.9
415.32	19559.7
418.212	17869.2
421.105	15684.4
423.998	10443.6
426.89	5060.38
429.783	2042.94
432.676	749.044
435.568	221.851
438.461	214.846
441.354	545.234
444.247	531.704
447.139	178.031
450.032	1249.89
452.925	2611.22
455.817	3603.11
458.71	5041.07
461.603	7415.99
464.496	10511.5
467.388	13773.4
470.281	15868.8
473.174	15535.5
476.066	12340
478.959	8472.33
481.852	5010.66
484.745	2751.01
487.637	1472.45
490.53	1212.92
493.423	1896.13
496.315	3121.73
499.208	4154.75
502.101	4404.89
504.993	3234.58
507.886	1965.87
510.779	1333.12
513.672	1457.43
516.564	1997.17
519.457	2783.33
522.35	3619.79
525.242	4426.85
528.135	5447.81
531.028	6442.54
533.92	7377.29
536.813	8052.4
539.706	8283.41
542.598	8010.19
545.491	7426.23
548.384	6308.43
551.277	4502.1
554.169	2945.47
557.062	2024.22
559.955	1837.79
562.847	1961.25
565.74	2119.25
568.633	2352.99
571.525	2552.58
574.418	2391.63
577.311	2137.53
580.204	1358.38
583.096	631.539
585.989	3.01562
588.882	310.381
591.774	447.961
594.667	403.875
597.56	20.2539
600.452	420.434
603.345	1610.18
606.238	3028.14
609.131	4707.74
612.023	6629.38
614.916	8540.84
617.809	10248.6
620.701	11531.3
623.594	12511.5
626.487	13081.6
629.38	13095.3
632.272	12843.3
635.165	11947.9
638.058	10689.6
640.95	9165.55
643.843	7438.68
646.736	5570.03
649.628	3627.63
652.521	2097.33
655.414	897.516
658.307	144.461
661.199	294.68
664.092	426.228
666.985	100.064
669.877	631.109
672.77	1483.47
675.663	2728.85
678.556	4240.95
681.448	5838.33
684.341	7150.45
687.234	8504.26
690.126	9634.73
693.019	10192.7
695.912	10063.6
698.804	9183.84
701.697	7917.12
704.59	6219.57
707.482	4431.56
710.375	3066.18
713.268	2232.43
716.161	2126.19
719.053	2353.53
721.946	2873.23
724.839	3909.14
727.731	5421.03
730.624	6829.11
733.517	8137.2
736.409	9555.72
739.302	11003.2
742.195	12175.6
745.088	12780.9
747.98	12553.9
750.873	11304.3
753.766	9567.9
756.658	7624.46
759.551	5775.07
762.444	4016.8
765.337	2491.1
768.229	1334.42
771.122	535.57
774.015	116.727
776.907	337.799
779.8	300.059
782.693	379.861
785.585	1297.81
788.478	2413.88
791.371	3796.02
794.264	5259.07
797.156	6703.73
800.049	7967.91
802.942	8725.32
805.834	8832.43
808.727	8210.32
811.62	7065.42
814.512	5790.27
817.405	4472.36
820.298	3499.51
823.191	2846.3
826.083	2548.88
828.976	2503.87
831.869	2387.92
834.761	2299.76
837.654	1851.05
840.547	1452.04
843.439	1050.78
846.332	789.88
849.225	500.726
852.118	274.09
855.01	255.219
857.903	44.8584
860.796	175.109
863.688	245.723
866.581	166.514
869.474	74.0811
872.366	399.752
875.259	1084.94
878.152	2054.74
881.045	2851.89
883.937	3116.38
886.83	2425.45
889.723	1340.83
892.615	752.405
895.508	347.958
898.401	162.751
901.293	184.628
904.186	189.476
907.079	289.741
909.972	323.047
912.864	322.118
915.757	357.448
918.65	422.609
921.542	403.309
924.435	503.248
927.328	594.173
930.221	709.687
933.113	633.205
936.006	312.85
938.899	172.281
941.791	215.205
944.684	201.088
947.577	188.939
950.469	182.63
953.362	198.5
956.255	235.192
959.148	255.506
962.04	333.861
964.933	408.913
967.826	755.061
970.718	1140.04
973.611	1536.09
976.504	1772.24
979.396	1400.83
982.289	785.758
985.182	531.214
988.074	393.3
990.967	380.607
993.86	366.748
996.753	296.977
999.645	318.407
1002.54	330.18
1005.43	295.289
1008.32	277.751
1011.22	161.251
1014.11	182.112
1017	109.291
1019.89	48.2568
1022.79	19.4795
1025.68	17.8965
1028.57	102.537
1031.46	10.6304
1034.36	7.58789
1037.25	69.9297
1040.14	78.4697
1043.04	40.063
1045.93	15.2695
1048.82	16.5957
1051.71	27.9785
1054.61	1.82519
1057.5	27.8999
1060.39	72.2139
1063.29	81.4141
1066.18	146.56
1069.07	147.791
1071.96	194.877
1074.86	275.769
1077.75	327.931
1080.64	394.269
1083.53	468.845
1086.43	511.869
1089.32	770.711
1092.21	1379.21
1095.1	3192.88
1098	6563.24
1100.89	10253.2
1103.78	12493.5
1106.67	7017.53
1109.57	2508.71
1112.46	991.59
1115.35	575.913
1118.25	378
1121.14	241.18
1124.03	131.024
1126.92	77.0606
1129.82	85.2163
1132.71	65.5938
1135.6	29.1553
1138.49	20.2012
1141.39	18.0112
1144.28	48.5288
1147.17	5.51367
1150.07	50.6162
1152.96	13.5102
1155.85	75.999
1158.74	49.856
1161.64	3.84326
1164.53	92.5483
1167.42	45.5562
1170.32	77.3457
1173.21	45.5781
1176.1	36.9121
1178.99	24.9131
1181.88	61.6284
1184.78	20.563
1187.67	91.6352
1190.56	27.6352
1193.46	49.5523
1196.35	42.1777
1199.24	69.4932
1202.13	29.2002
1205.03	25
1207.92	18.7993
1210.81	0.943359
1213.7	30.1411
1216.6	49.8862
1219.49	87.7163
1222.38	136.603
1225.28	137.155
1228.17	61.9121
1231.06	26.6221
1233.95	14.0713
1236.85	5.08008
1239.74	51.5737
1242.63	35.9243
1245.53	67.5386
1248.42	85.6924
1251.31	87.8013
1254.2	30.7202
1257.1	57.4678
1259.99	125.915
1262.88	90.1733
1265.77	101.798
1268.67	107.934
1271.56	86.2769
1274.45	70.7446
1277.35	131.948
1280.24	6.16943
1283.13	100.651
1286.02	33.7144
1288.91	0
