Measurement: Raman, 532 nm, unoriented, Raman Data Processed
Mineral: Imiterite
Rruff sample: R080014
Ideal chemistry: Ag_2_HgS_2_
Locality: Imiter, Morocco
Source: Michael Scott
Description: Black, metallic, prismatic crystals with striation, associated with calcite and dolomite
Raman shift (cm-1)	intensity
143.064	0
145.957	0.157094
148.85	0.315215
151.742	0.148419
154.635	0.528694
157.528	0.138299
160.421	0.438046
163.313	0.070951
166.206	0.419752
169.099	0.341669
171.991	0.614314
174.884	0.597188
177.777	0.17965
180.669	0.168182
183.562	0.004148
186.455	0.293043
189.347	0.753302
192.24	0.276062
195.133	0.216034
198.025	0.32137
200.918	0.150968
203.811	0.072195
206.704	0.274647
209.596	0.084911
212.489	0.547851
215.382	0.174433
218.274	0.393215
221.167	0.442729
224.06	0.73842
226.952	0.452854
229.845	0.456871
232.738	0.33162
235.631	0.423319
238.523	0.579952
241.416	0.59313
244.309	0.724893
247.201	0.685758
250.094	0.14538
252.987	0.385702
255.88	0.572277
258.772	0.687773
261.665	0.368959
264.558	0.382873
267.45	0.584152
270.343	0.540494
273.236	1.06717
276.128	1.06811
279.021	0.86845
281.914	1.08389
284.807	1.28927
287.699	0.994442
290.592	1.15133
293.485	0.342764
296.377	0.475886
299.27	0.345139
302.163	0.613632
305.055	0.729215
307.948	0.445913
310.841	0.080621
313.733	0.300138
316.626	0.602088
319.519	0.001262
322.412	0.363581
325.304	0.544887
328.197	0.046446
331.09	0.440683
333.982	0.35725
336.875	0.00969
339.768	0.309794
342.661	0.510371
345.553	0.277907
348.446	0.361934
351.339	0.058639
354.231	0.109846
357.124	0.329369
360.017	0.454764
362.909	0.272838
365.802	0.008412
368.695	0.540345
371.587	0.319506
374.48	0.218874
377.373	0.517963
380.266	0.407529
383.158	0.008531
386.051	0.072799
388.944	0.099253
391.836	0.109073
394.729	0.403382
397.622	0.755327
400.514	0.142688
403.407	0.103849
406.3	0.474998
409.193	0.298887
412.085	0.251293
414.978	0.342672
417.871	0.477143
420.763	0.47408
423.656	0.335294
426.549	0.237465
429.442	0.368907
432.334	0.341484
435.227	0.012369
438.12	0.229093
441.012	0.38414
443.905	0.311759
446.798	0.125968
449.69	0.260914
452.583	0.528877
455.476	0.127766
458.368	0.388959
461.261	0.291991
464.154	0.57779
467.047	0.265336
469.939	0.16337
472.832	0.270769
475.725	0.244056
478.617	0.06716
481.51	0.499513
484.403	0.372296
487.296	0.403693
490.188	0.327046
493.081	0.196014
495.974	0.240792
498.866	0.069932
501.759	0.161883
504.652	0.542665
507.544	0.319091
510.437	0.441877
513.33	0.538705
516.222	0.113833
519.115	0.272834
522.008	0.273336
524.901	0.135829
527.793	0.434359
530.686	0.45807
533.579	0.241957
536.471	0.409046
539.364	0.309965
542.257	0.787577
545.149	0.557695
548.042	0.334581
550.935	0.520279
553.828	0.656776
556.72	0.268338
559.613	0.573238
562.506	0.08415
565.398	0.09528
568.291	0.55093
571.184	0.675344
574.077	0.398136
576.969	0.315351
579.862	0.183238
582.755	0.096859
585.647	0.023626
588.54	0.617226
591.433	0.241531
594.325	0.047054
597.218	0.276941
600.111	0.061506
603.004	0.533227
605.896	0.024868
608.789	0.340446
611.682	0.09938
614.574	0.646902
617.467	0.596077
620.36	0.295975
623.252	0.227927
626.145	0.428531
629.038	0.255527
631.931	0.228844
634.823	0.265233
637.716	0.278674
640.609	0.313563
643.501	0.273718
646.394	0.826694
649.287	0.433297
652.179	0.419401
655.072	0.518877
657.965	0.505026
660.857	0.633658
663.75	0.158951
666.643	0.37513
669.536	0.215145
672.428	0.428951
675.321	0.49653
678.214	0.192537
681.106	0.094563
683.999	0.662094
686.892	0.034887
689.784	0.120127
692.677	0.452552
695.57	0.048846
698.463	0.091136
701.355	0.279343
704.248	0.533083
707.141	0.449727
710.033	0.240888
712.926	0.445044
715.819	0.241551
718.711	0.293466
721.604	0.165526
724.497	0.594036
727.389	0.250814
730.282	0.218804
733.175	0.300501
736.068	0.143983
738.96	0.099513
741.853	0.217992
744.746	0.171978
747.638	0.044283
750.531	0.251939
753.424	0.021178
756.317	0.158656
759.209	0.511256
762.102	0.428847
764.995	0.314625
767.887	0.094864
770.78	0.134454
773.673	0.271657
776.565	0.097703
779.458	0.312359
782.351	0.248176
785.244	0.468596
788.136	0.201925
791.029	0.269011
793.922	0.025749
796.814	0.01742
799.707	0.13304
802.6	0.224077
805.492	0.290908
808.385	0.233216
811.278	0.112134
814.17	0.325443
817.063	0.012088
819.956	0.034747
822.849	0.691234
825.741	0.285294
828.634	0.319876
831.527	0.475498
834.419	0.343719
837.312	0.321236
840.205	0.546393
843.097	0.214077
845.99	0.363214
848.883	0.276612
851.776	0.042822
854.668	0.435631
857.561	0.222345
860.454	0.176406
863.346	0.081129
866.239	0.119622
869.132	0.420995
872.024	0.274964
874.917	0.460364
877.81	0.451235
880.703	0.051434
883.595	0.105402
886.488	0.132144
889.381	0.113771
892.273	0.315521
895.166	0.236771
898.059	0.282816
900.952	0.193593
903.844	0.27352
906.737	0.115199
909.63	0.153959
912.522	0.082954
915.415	0.081139
918.308	0.117595
921.2	0.216838
924.093	0.105466
926.986	0.364883
929.879	0.595438
932.771	0.127416
935.664	0.5273
938.557	0.335543
941.449	0.255564
944.342	0.554803
947.235	0.174758
950.127	0.055832
953.02	0.548588
955.913	0.28286
958.806	0.213538
961.698	0.159836
964.591	0.390233
967.484	0.46337
970.376	0.257936
973.269	0.018947
976.162	0.301587
979.054	0.359528
981.947	0.523412
984.84	0.120479
987.732	0.363304
990.625	0.255298
993.518	0.50239
996.411	0.728815
999.303	0.206454
1002.2	0.42029
1005.09	0.41032
1007.98	0.207911
1010.87	0.283433
1013.77	0.160309
1016.66	0.275981
1019.55	0.104364
1022.45	0.257842
1025.34	0.107393
1028.23	0.317667
1031.12	0.466845
1034.02	0.56269
1036.91	0.372618
1039.8	0.367744
1042.69	0.288572
1045.59	0.207712
1048.48	0.574353
1051.37	0.291158
1054.27	0.432712
1057.16	0.093361
1060.05	0.507985
1062.94	0.153233
1065.84	0.294561
1068.73	0.222319
1071.62	0.219331
1074.51	0.311489
1077.41	0.062521
1080.3	0.310811
1083.19	0.537751
1086.08	0.349086
1088.98	0.42802
1091.87	0.029117
1094.76	0.019567
1097.65	0.069547
1100.55	0.247433
1103.44	0.449733
1106.33	0.123956
1109.23	0.416164
1112.12	0.207628
1115.01	0.383573
1117.9	0.149267
1120.8	0.551354
1123.69	0.455223
1126.58	0.246115
1129.47	0.344673
1132.37	0.434379
1135.26	0.03692
1138.15	0.366355
1141.05	0.354267
1143.94	0.216218
1146.83	0.561892
1149.72	0.214862
1152.62	0.311538
1155.51	0.541668
1158.4	0.137024
1161.29	0.265558
1164.19	0.217513
1167.08	0.246976
1169.97	0.177483
1172.87	0.010756
1175.76	0.137974
1178.65	0.402275
1181.54	0.440948
1184.44	0.126628
1187.33	0.203454
1190.22	0.227716
1193.11	0.002975
1196.01	0.542366
1198.9	0.040346
1201.79	0.14227
1204.68	0.07982
1207.58	0.247355
1210.47	0.405004
1213.36	0.273025
1216.26	0.287798
1219.15	0.42374
1222.04	0.338171
1224.93	0.564228
1227.83	0.383267
1230.72	0.30498
1233.61	0.152627
1236.51	0.372671
1239.4	0.352087
1242.29	0.705729
1245.18	0.220895
1248.08	0.185469
1250.97	0.356801
1253.86	0.093612
1256.75	0.407829
1259.65	0.163328
1262.54	0.611199
1265.43	0.543454
1268.32	0.508542
1271.22	0.665968
1274.11	0.377096
1277	0.053297
1279.89	0.483989
1282.79	0.459602
1285.68	0.515443
1288.57	0
