Measurement: Raman, 532 nm, unoriented, Raman Data Processed
Mineral: Insizwaite
Rruff sample: R070743
Ideal chemistry: PtBi_2_
Locality: Strathcona Mine, Levack, Sudbury District (Sudbury Complex; Sudbury nickel irruptive), Ontario, Canada
Source: Michael Scott
Description: Tin white metallic massive associated with chalcopyrite and quartz
Raman shift (cm-1)	intensity
165.928	0
168.821	5.94873
171.714	54.9761
174.607	0.429321
177.499	16.5852
180.392	67.5985
183.285	43.1111
186.177	78.2905
189.07	77.6124
191.963	81.2772
194.855	92.9678
197.748	76.4813
200.641	83.3651
203.534	74.6984
206.426	124.145
209.319	112.883
212.212	107.849
215.104	50.0632
217.997	18.0101
220.89	75.0061
223.782	54.2711
226.675	37.2605
229.568	16.6509
232.46	18.1794
235.353	55.8946
238.246	17.0643
241.138	12.721
244.031	5.21362
246.924	30.7378
249.817	9.48779
252.709	39.7767
255.602	64.9386
258.495	20.6016
261.387	57.3511
264.28	12.5592
267.173	55.1785
270.066	50.2106
272.958	62.8386
275.851	103.838
278.744	37.8779
281.636	77.9689
284.529	67.5142
287.422	68.4723
290.314	53.91
293.207	71.8193
296.1	34.5714
298.993	5.92725
301.885	21.667
304.778	1.39136
307.671	51.7378
310.563	51.4402
313.456	19.0303
316.349	37.8579
319.241	50.6282
322.134	16.5856
325.027	21.4816
327.92	1.13599
330.812	64.6627
333.705	9.26379
336.598	4.49658
339.49	38.8961
342.383	20.9343
345.276	31.6708
348.168	40.288
351.061	12.8992
353.954	66.9049
356.846	31.6346
359.739	18.6656
362.632	59.3757
365.525	59.5398
368.417	51.9919
371.31	43.0018
374.203	34.4397
377.095	30.4829
379.988	17.208
382.881	69.3873
385.774	50.495
388.666	21.6462
391.559	64.1663
394.452	16.1301
397.344	34.6031
400.237	16.3903
403.13	2.08813
406.022	30.4663
408.915	7.6333
411.808	10.7028
414.7	30.5984
417.593	5.92383
420.486	44.6554
423.379	38.1418
426.271	45.6562
429.164	45.433
432.057	68.8
434.949	38.3562
437.842	58.1786
440.735	58.9242
443.627	63.3488
446.52	104.155
449.413	145.488
452.306	95.4513
455.198	193.357
458.091	144.74
460.984	215.389
463.876	201.209
466.769	184.77
469.662	176.271
472.555	144.755
475.447	89.7
478.34	86.4329
481.233	54.3492
484.125	35.7113
487.018	70.9821
489.911	27.1713
492.803	19.6757
495.696	53.434
498.589	21.9217
501.481	6.92346
504.374	30.2631
507.267	0.982056
510.16	16.0287
513.052	31.9656
515.945	18.606
518.838	5.59668
521.73	10.8025
524.623	3.60669
527.516	4.15222
530.408	7.27063
533.301	3.36865
536.194	24.0153
539.087	17.7644
541.979	3.81238
544.872	23.6296
547.765	0.903442
550.657	9.16821
553.55	54.8569
556.443	25.9988
559.335	44.1061
562.228	0.467529
565.121	38.4532
568.014	3.75098
570.906	28.3185
573.799	23.4983
576.692	24.0638
579.584	17.0012
582.477	30.9397
585.37	15.5347
588.263	37.0925
591.155	10.8536
594.048	35.9594
596.941	11.5149
599.833	45.1605
602.726	18.5225
605.619	17.6713
608.511	16.0022
611.404	25.9582
614.297	19.7378
617.189	26.4443
620.082	19.0636
622.975	25.938
625.868	39.1794
628.76	5.66711
631.653	41.9033
634.546	23.7256
637.438	39.5944
640.331	14.3367
643.224	27.4508
646.116	27.8141
649.009	9.98743
651.902	27.0121
654.794	27.1281
657.687	38.9477
660.58	44.5269
663.473	45.8015
666.365	27.2279
669.258	53.9012
672.151	49.0046
675.043	42.8024
677.936	27.3848
680.829	43.6235
683.721	43.0503
686.614	1.87878
689.507	3.98132
692.4	16.3088
695.292	32.9608
698.185	37.7412
701.078	18.6182
703.97	15.0501
706.863	15.9943
709.756	7.19214
712.649	31.2251
715.541	28.3398
718.434	20.58
721.327	20.5249
724.219	65.7113
727.112	26.5431
730.005	21.1274
732.897	1.79272
735.79	14.5241
738.683	27.2029
741.576	59.9633
744.468	39.3667
747.361	21.256
750.254	6.05115
753.146	29.0493
756.039	15.9168
758.932	23.1918
761.824	37.2722
764.717	7.56152
767.61	31.8402
770.503	18.9691
773.395	61.0376
776.288	26.6883
779.181	34.0864
782.073	24.1244
784.966	19.8384
787.859	4.29407
790.751	34.7804
793.644	5.78894
796.537	17.8528
799.429	11.9811
802.322	16.304
805.215	25.7024
808.108	4.6781
811	19.8672
813.893	49.6404
816.786	21.705
819.678	44.2144
822.571	14.4496
825.464	19.1942
828.356	44.5537
831.249	10.3337
834.142	1.61353
837.034	16.4022
839.927	54.095
842.82	69.3927
845.713	22.8645
848.605	1.42578
851.498	23.1278
854.391	1.93579
857.283	36.5026
860.176	25.9834
863.069	64.7656
865.962	34.0529
868.854	29.1683
871.747	31.0945
874.64	8.43799
877.532	15.7832
880.425	32.9286
883.318	56.1921
886.21	31.4627
889.103	37.4742
891.996	33.1785
894.889	4.61755
897.781	46.2529
900.674	30.4939
903.567	29.6339
906.459	14.3105
909.352	18.8896
912.245	46.7301
915.138	47.0743
918.03	56.3442
920.923	22.9831
923.816	47.73
926.708	9.66907
929.601	28.9934
932.494	8.55225
935.386	20.0403
938.279	24.9988
941.172	44.5929
944.064	38.3005
946.957	51.1813
949.85	20.1157
952.743	28.0427
955.635	28.4625
958.528	18.8108
961.421	22.4608
964.313	8.94067
967.206	33.6256
970.099	41.01
972.991	23.5558
975.884	46.8026
978.777	25.0885
981.669	34.0094
984.562	5.07886
987.455	3.65491
990.348	25.3434
993.24	18.121
996.133	33.2993
999.026	34.9199
1001.92	54.2665
1004.81	24.5261
1007.7	34.9288
1010.6	15.9594
1013.49	4.12036
1016.38	35.45
1019.27	11.8013
1022.17	32.3967
1025.06	31.0607
1027.95	29.2308
1030.85	40.5339
1033.74	50.8563
1036.63	29.2881
1039.52	23.2974
1042.42	41.4922
1045.31	49.5812
1048.2	35.5117
1051.09	39.4626
1053.99	30.8187
1056.88	29.8562
1059.77	16.9246
1062.66	24.7533
1065.56	30.7064
1068.45	46.1034
1071.34	4.89368
1074.24	41.0178
1077.13	34.6406
1080.02	50.9812
1082.91	115.391
1085.81	111.528
1088.7	46.704
1091.59	19.9929
1094.48	10.3732
1097.38	44.9314
1100.27	15.0378
1103.16	32.0626
1106.06	5.31274
1108.95	14.3629
1111.84	19.9578
1114.73	27.0845
1117.63	7.13599
1120.52	15.9573
1123.41	18.0081
1126.3	12.4677
1129.2	20.2213
1132.09	14.839
1134.98	31.8915
1137.88	25.5436
1140.77	12.061
1143.66	20.3419
1146.55	35.5808
1149.45	13.9497
1152.34	34.2179
1155.23	16.0939
1158.12	7.65344
1161.02	2.26208
1163.91	17.9459
1166.8	18.0122
1169.69	10.7252
1172.59	29.1982
1175.48	0.476929
1178.37	3.177
1181.27	16.811
1184.16	40.5465
1187.05	10.0035
1189.94	56.9048
1192.84	37.0332
1195.73	17.5701
1198.62	18.076
1201.52	24.9188
1204.41	12.3563
1207.3	20.7008
1210.19	40.7186
1213.09	55.1144
1215.98	39.0774
1218.87	22.9799
1221.76	18.9666
1224.66	48.7264
1227.55	30.2144
1230.44	39.3854
1233.33	26.1108
1236.23	42.0159
1239.12	28.726
1242.01	67.2181
1244.9	27.5066
1247.8	33.1036
1250.69	32.5681
1253.58	21.8378
1256.48	29.6731
1259.37	22.3742
1262.26	66.9149
1265.15	36.155
1268.05	14.2863
1270.94	29.8779
1273.83	15.5361
1276.72	5.10303
