Measurement: Raman, 780 nm, unoriented, Raman Data Processed
Mineral: Insizwaite
Rruff sample: R070743
Ideal chemistry: PtBi_2_
Locality: Strathcona Mine, Levack, Sudbury District (Sudbury Complex; Sudbury nickel irruptive), Ontario, Canada
Source: Michael Scott
Description: Tin white metallic massive associated with chalcopyrite and quartz
Raman shift (cm-1)	intensity
181.716	0
184.609	4.67334
187.502	83.0469
190.395	51.998
193.287	75.1128
196.18	112.021
199.073	52.6953
201.965	99.1074
204.858	153.667
207.751	151.244
210.643	116.963
213.536	99.0674
216.429	118.194
219.322	93.1372
222.214	94.7041
225.107	99.999
228	97.6035
230.892	120.514
233.785	18.5659
236.678	35.5391
239.571	12.1484
242.463	41.1738
245.356	56.1943
248.249	52.0342
251.141	40.8418
254.034	25.1699
256.927	83.7236
259.819	67.8926
262.712	43.75
265.605	16.4883
268.498	62.7373
271.39	81.0562
274.283	30.8682
277.176	29.5068
280.068	93.832
282.961	97.8594
285.854	61.6279
288.746	33.625
291.639	74.6211
294.532	39.9878
297.425	12.2231
300.317	88.5869
303.21	68.0054
306.103	54.8848
308.995	30.5615
311.888	65.4458
314.781	41.9956
317.673	62.6948
320.566	40.1279
323.459	39.9141
326.351	74.4673
329.244	11.5479
332.137	37.4946
335.03	12.5244
337.922	73.7129
340.815	29.8506
343.708	2.58154
346.6	26.5977
349.493	105.981
352.386	36.2476
355.279	26.6977
358.171	60.7451
361.064	28.2769
363.957	8.15332
366.849	81.9321
369.742	60.0488
372.635	44.8008
375.527	49.3784
378.42	27.4644
381.313	15.5254
384.205	38.2261
387.098	19.7065
389.991	8.4585
392.884	18.9463
395.776	21.8086
398.669	41.8257
401.562	31.5342
404.454	47.7256
407.347	39.5884
410.24	38.103
413.132	47.7852
416.025	63.2612
418.918	63.7876
421.811	57.0112
424.703	46.1597
427.596	89.563
430.489	82.5933
433.381	72.4746
436.274	119.657
439.167	112.387
442.06	125.523
444.952	124.724
447.845	123.097
450.738	93.9131
453.63	121.963
456.523	165.263
459.416	127.574
462.308	134.6
465.201	111.977
468.094	160.36
470.986	81.3999
473.879	138.551
476.772	142.225
479.665	168.954
482.557	92.7134
485.45	34.4438
488.343	86.4136
491.235	51.2773
494.128	48.438
497.021	79.5737
499.913	51.7134
502.806	22.0684
505.699	41.1592
508.592	24.3648
511.484	83.1338
514.377	5.66211
517.27	36.0991
520.162	24.8355
523.055	17.5303
525.948	3.47607
528.841	29.8994
531.733	27.0898
534.626	6.15479
537.519	60.4023
540.411	5.63525
543.304	42.3618
546.197	7.21436
549.089	44.5913
551.982	15.8706
554.875	30.1997
557.768	68.4194
560.66	59.27
563.553	6.08252
566.446	21.5088
569.338	59.6435
572.231	30.8892
575.124	55.5727
578.016	49.6084
580.909	2.09082
583.802	34.4263
586.694	23.5107
589.587	11.7378
592.48	36.5596
595.373	48.7202
598.265	67.9356
601.158	96.021
604.051	57.0703
606.943	69.0742
609.836	37.2241
612.729	70.5049
615.621	90.4431
618.514	44.0547
621.407	92.0723
624.3	4.04004
627.192	43.2507
630.085	97.7075
632.978	37.8877
635.87	59.0984
638.763	75.2817
641.656	18.3459
644.548	36.5659
647.441	46.9788
650.334	46.3013
653.227	50.096
656.119	71.6702
659.012	36.7415
661.905	77.9182
664.797	103.265
667.69	71.0618
670.583	61.1917
673.476	63.8777
676.368	69.0471
679.261	55.4458
682.154	52.8162
685.046	21.5808
687.939	78.9509
690.832	89.3381
693.724	50.0598
696.617	97.2481
699.51	22.0037
702.403	63.4053
705.295	74.2783
708.188	41.8645
711.081	31.3882
713.973	91.551
716.866	7.90601
719.759	24.0515
722.651	34.6938
725.544	57.6663
728.437	2.67358
731.33	29.9416
734.222	58.3677
737.115	47.4697
740.008	45.7612
742.9	44.0786
745.793	43.6924
748.686	65.9883
751.578	11.9543
754.471	69.7236
757.364	25.3794
760.256	55.4958
763.149	44.345
766.042	49.9712
768.935	32.4446
771.827	61.7439
774.72	52.3474
777.613	41.7786
780.505	72.9973
783.398	31.4619
786.291	56.5879
789.183	73.3135
792.076	16.4678
794.969	5.74194
797.862	48.5999
800.754	1.51294
803.647	4.55151
806.54	72.3367
809.432	6.05811
812.325	46.2293
815.218	88.2537
818.111	24.7651
821.003	42.3879
823.896	84.9021
826.788	83.5518
829.681	64.1282
832.574	56.7441
835.467	38.897
838.359	54.906
841.252	85.6606
844.145	70.8709
847.037	50.6196
849.93	29.8442
852.823	80.8503
855.716	50.7466
858.608	44.9348
861.501	14.1106
864.394	50.0762
867.286	32.3013
870.179	78.5186
873.072	33.2815
875.964	25.8523
878.857	20.5054
881.75	41.0735
884.643	36.4548
887.535	41.5559
890.428	63.6572
893.321	29.1169
896.213	50.0767
899.106	43.4009
901.999	39.4919
904.891	12.6836
907.784	23.2449
910.677	48.1721
913.569	4.14258
916.462	53.7273
919.355	77.5737
922.248	54.1025
925.14	39.7583
928.033	43.2161
930.926	8.39648
933.818	38.7156
936.711	5.89819
939.604	56.102
942.496	5.38354
945.389	72.6206
948.282	32.779
951.175	51.7957
954.067	31.6179
956.96	70.1033
959.853	27.7661
962.745	68.4033
965.638	41.2195
968.531	29.5418
971.423	33.3135
974.316	10.7861
977.209	3.77124
980.102	31.0908
982.994	86.1064
985.887	21.824
988.78	23.7834
991.672	34.1135
994.565	21.4946
997.458	2.59473
1000.35	51.3315
1003.24	29.074
1006.14	48.5938
1009.03	7.46875
1011.92	78.3713
1014.81	45.2124
1017.71	22.2576
1020.6	59.8779
1023.49	2.42432
1026.38	22.3811
1029.28	38.3464
1032.17	65.988
1035.06	60.5986
1037.96	38.3425
1040.85	56.0447
1043.74	73.9551
1046.63	63.499
1049.53	87.2647
1052.42	91.4299
1055.31	48.4575
1058.2	33.8943
1061.1	55.2129
1063.99	30.9353
1066.88	47.9675
1069.78	100.776
1072.67	25.4426
1075.56	76.1733
1078.45	59.4692
1081.35	37.342
1084.24	58.9695
1087.13	55.3657
1090.02	22.572
1092.92	20.4797
1095.81	15.7261
1098.7	29.2356
1101.6	6.58008
1104.49	41.2476
1107.38	23.2871
1110.27	18.4898
1113.17	38.457
1116.06	51.4565
1118.95	47.1296
1121.84	33.7437
1124.74	14.9409
1127.63	42.5703
1130.52	36.1423
1133.41	12.1052
1136.31	51.8494
1139.2	74.8423
1142.09	23.3533
1144.98	19.7529
1147.88	60.7671
1150.77	51.7068
1153.66	50.0835
1156.56	75.249
1159.45	47.3752
1162.34	38.4883
1165.23	6.83691
1168.13	66.8679
1171.02	62.9912
1173.91	57.7451
1176.81	56.7161
1179.7	53.5815
1182.59	56.1272
1185.48	36.4509
1188.38	9.47974
1191.27	26.5754
1194.16	25.3359
1197.05	16.2935
1199.95	14.8894
1202.84	60.312
1205.73	76.2493
1208.62	61.6311
1211.52	47.6326
1214.41	43.9919
1217.3	24.5725
1220.2	4.63281
1223.09	42.343
1225.98	58.3
1228.87	44.1257
1231.77	34.9219
1234.66	66.8191
1237.55	63.7451
1240.44	2.53882
1243.34	57.0098
1246.23	22.6379
1249.12	74.4446
1252.02	77.3848
1254.91	55.2685
1257.8	73.0007
1260.69	28.9231
1263.59	37.0879
1266.48	29.1685
1269.37	15.9917
1272.26	46.2419
1275.16	0
