Measurement: Raman, 532 nm, unoriented, Raman Data Processed
Mineral: Iridium
Rruff sample: R070258
Ideal chemistry: Ir
Locality: Fox Gulch, Salmon River - Red Mountain district, Goodnews Bay, Bethel Borough, Alaska, USA
Source: Michael Scott
Description: Metallic gray single grain
Raman shift (cm-1)	intensity
170.393	0
173.286	17.7827
176.178	1.177
179.071	43.2068
181.964	17.0173
184.856	20.7341
187.749	21.1216
190.642	111.508
193.535	71.5352
196.427	74.0835
199.32	42.6333
202.213	93.313
205.105	105.532
207.998	128.279
210.891	123.714
213.783	121.118
216.676	77.0164
219.569	61.1926
222.462	30.2036
225.354	11.9876
228.247	18.8367
231.14	20.1086
234.032	7.10718
236.925	4.34131
239.818	23.8306
242.71	25.5752
245.603	46.8657
248.496	34.1211
251.388	52.4729
254.281	84.1189
257.174	96.0591
260.067	89.3904
262.959	51.7097
265.852	56.2383
268.745	48.3076
271.637	76.2803
274.53	59.0239
277.423	50.9924
280.315	36.2346
283.208	50.5002
286.101	33.2356
288.994	41.3984
291.886	60.4441
294.779	37.5864
297.672	60.8889
300.564	9.29102
303.457	2.3855
306.35	49.9849
309.243	5.78979
312.135	42.4092
315.028	63.0806
317.921	57.6704
320.813	23.4434
323.706	52.6919
326.599	73.0847
329.491	85.9658
332.384	102.927
335.277	53.387
338.17	71.718
341.062	42.6025
343.955	72.5837
346.848	88.0864
349.74	83.1162
352.633	59.2925
355.526	32.6543
358.418	73.3196
361.311	60.2927
364.204	122.216
367.097	80.6694
369.989	112.238
372.882	97.2329
375.775	67.1616
378.667	54.8652
381.56	65.7922
384.453	61.5154
387.346	59.5239
390.238	48.5437
393.131	50.8569
396.024	44.0469
398.916	27.8489
401.809	3.02148
404.702	42.9683
407.594	2.03345
410.487	12.3784
413.38	7.07227
416.272	35.3772
419.165	4.11157
422.058	18.6811
424.951	11.04
427.843	39.3415
430.736	28.0418
433.629	62.7036
436.521	27.2209
439.414	17.0564
442.307	41.7668
445.2	31.9114
448.092	47.5249
450.985	34.2668
453.878	52.4849
456.77	62.3677
459.663	47.9443
462.556	10.7041
465.448	60.1245
468.341	10.6133
471.234	26.1614
474.127	76.3005
477.019	48.3877
479.912	59.3474
482.805	7.375
485.697	26.3489
488.59	7.40796
491.483	30.9502
494.375	25.4578
497.268	53.1558
500.161	54.1226
503.053	18.3835
505.946	47.168
508.839	38.6079
511.732	23.5776
514.624	39.8057
517.517	38.4092
520.41	78.668
523.302	39.583
526.195	55.3145
529.088	35.8418
531.981	47.669
534.873	64.376
537.766	47.3057
540.659	63.0542
543.551	71.6699
546.444	33.8525
549.337	61.0796
552.229	48.3379
555.122	80.813
558.015	56.4824
560.908	42.5454
563.8	38.7739
566.693	13.2808
569.586	44.4697
572.478	74.4394
575.371	61.7017
578.264	60.5063
581.156	9.99365
584.049	39.8735
586.942	30.6963
589.835	43.0645
592.727	37.0098
595.62	12.7817
598.513	29.3169
601.405	48.4653
604.298	34.4995
607.191	85.9263
610.083	16.084
612.976	21.5454
615.869	22.312
618.762	56.1533
621.654	63.6484
624.547	36.2402
627.44	39.8252
630.332	46.6733
633.225	33.8735
636.118	31.6802
639.01	15.689
641.903	33.8462
644.796	88.3086
647.689	70.9512
650.581	14.1304
653.474	60.2505
656.367	31.2993
659.259	31.2739
662.152	52.5088
665.045	72.4834
667.938	57.7964
670.83	26.084
673.723	56.0347
676.616	29.5259
679.508	86.0586
682.401	20.8355
685.294	60.5781
688.186	35.5386
691.079	39.1763
693.972	48.1802
696.865	59.7842
699.757	61.7783
702.65	44.9795
705.543	38.9429
708.435	14.1992
711.328	55.1099
714.221	46.2105
717.113	16.6963
720.006	47.6841
722.899	22.438
725.792	52.3765
728.684	65.3174
731.577	39.6362
734.47	21.4102
737.362	105.897
740.255	84.1133
743.148	17.2895
746.04	50.0732
748.933	19.3213
751.826	2.26465
754.719	18.0645
757.611	29.1802
760.504	47.6558
763.397	18.6455
766.289	16.999
769.182	24.542
772.075	66.3682
774.967	6.79883
777.86	66.7666
780.753	14.9258
783.646	48.8828
786.538	24.7476
789.431	19.1216
792.324	56.0898
795.216	42.8887
798.109	0.131348
801.002	16.3301
803.894	62.1519
806.787	7.87158
809.68	42.1987
812.573	49.6367
815.465	49.706
818.358	70.8018
821.251	56.8603
824.143	22.2285
827.036	12.623
829.929	40.8389
832.822	24.5102
835.714	53.2881
838.607	29.6196
841.5	57.2788
844.392	25.6343
847.285	84.7832
850.178	87.1719
853.07	36.5967
855.963	55.563
858.856	5.6792
861.749	8.83838
864.641	41.2471
867.534	37.084
870.427	54.3306
873.319	53.9077
876.212	24.9248
879.105	57.6773
881.997	12.8052
884.89	49.3608
887.783	25.2178
890.676	65.2524
893.568	55.0586
896.461	41.626
899.354	34.2144
902.246	60.5942
905.139	88.1094
908.032	36.895
910.924	94.5391
913.817	63.1597
916.71	70.8408
919.602	35.5181
922.495	51.9453
925.388	20.4145
928.281	90.353
931.173	61.8423
934.066	43.748
936.959	46.375
939.851	42.8765
942.744	41.5762
945.637	55.2339
948.529	47.5425
951.422	51.4365
954.315	61.6724
957.208	24.1694
960.1	76.3613
962.993	46.8423
965.886	76.3765
968.778	75.6675
971.671	82.8838
974.564	47.4614
977.457	82.4746
980.349	51.9531
983.242	1.12842
986.135	45.7124
989.027	53.0727
991.92	55.564
994.813	51.3511
997.705	35.2783
1000.6	67.9644
1003.49	27.4907
1006.38	63.5864
1009.28	10.9893
1012.17	66.834
1015.06	85.6753
1017.95	45.1182
1020.85	19.729
1023.74	71.021
1026.63	47.4844
1029.53	20.7515
1032.42	78.4971
1035.31	90.8984
1038.2	99.665
1041.1	54.6616
1043.99	64.1533
1046.88	24.7085
1049.77	43.7568
1052.67	83.7124
1055.56	46.4258
1058.45	62.169
1061.35	50.4297
1064.24	65.5732
1067.13	51.0376
1070.02	82.6016
1072.92	51.438
1075.81	49.5498
1078.7	20.2573
1081.59	58.2554
1084.49	4.45606
1087.38	84.9477
1090.27	91.8823
1093.16	37.0225
1096.06	46.3223
1098.95	48.0576
1101.84	101.01
1104.73	1.14356
1107.63	60.1743
1110.52	5.09375
1113.41	65.9541
1116.31	21.9341
1119.2	39.7866
1122.09	6.36816
1124.98	64.6484
1127.88	6.81885
1130.77	53.3047
1133.66	10.3852
1136.56	40.7895
1139.45	29.0859
1142.34	81.5952
1145.23	62.7661
1148.13	96.9385
1151.02	63.6977
1153.91	87.957
1156.8	83.0249
1159.7	22.5503
1162.59	71.1255
1165.48	49.5591
1168.38	16.4736
1171.27	53.0508
1174.16	67.1621
1177.05	84.9673
1179.95	66.1367
1182.84	40.7529
1185.73	89.1196
1188.62	11.4131
1191.52	65.3643
1194.41	85.9551
1197.3	56.4692
1200.19	80.9956
1203.09	46.7041
1205.98	33.0435
1208.87	5.19092
1211.77	47.6621
1214.66	9.2915
1217.55	101.77
1220.44	34.0928
1223.34	24.269
1226.23	61.8384
1229.12	30.9458
1232.01	11.7207
1234.91	51.502
1237.8	69.4116
1240.69	75.2925
1243.59	10.3086
1246.48	24.2427
1249.37	112.487
1252.26	81.4771
1255.16	78.2827
1258.05	89.2896
1260.94	36.1499
1263.83	65.4033
1266.73	5.06348
1269.62	8.75537
1272.51	41.2524
1275.4	74.7031
1278.3	75.1343
1281.19	75.0181
1284.08	59.2178
1286.98	49.4321
1289.87	65.1274
1292.76	22.2495
1295.65	0
