Measurement: Raman, 785 nm, unoriented, Raman Data Processed
Mineral: Iridium
Rruff sample: R070258
Ideal chemistry: Ir
Locality: Fox Gulch, Salmon River - Red Mountain district, Goodnews Bay, Bethel Borough, Alaska, USA
Source: Michael Scott
Description: Metallic gray single grain
Raman shift (cm-1)	intensity
195.265	0
198.158	49.9263
201.051	44.1855
203.944	42.6941
206.836	30.9016
209.729	60.103
212.622	38.1382
215.514	54.5239
218.407	26.0034
221.3	69.47
224.192	6.18384
227.085	40.9717
229.978	12.2664
232.87	36.3147
235.763	11.124
238.656	30.2105
241.549	4.56421
244.441	16.9168
247.334	41.8018
250.227	33.304
253.119	23.9951
256.012	49.2578
258.905	38.3347
261.798	33.3103
264.69	56.4067
267.583	81.2173
270.476	48.3174
273.368	73.0815
276.261	122.155
279.154	61.3906
282.046	76.2295
284.939	109.804
287.832	152.854
290.724	129.598
293.617	190.326
296.51	138.482
299.403	177.055
302.295	229.209
305.188	207.263
308.081	251.063
310.973	265.814
313.866	212.38
316.759	173.895
319.651	170.108
322.544	122.175
325.437	138.531
328.33	135.832
331.222	108.421
334.115	90.9224
337.008	46.2349
339.9	29.1221
342.793	31.4746
345.686	29.897
348.579	12.1797
351.471	37.4624
354.364	13.2334
357.257	15.4985
360.149	24.8374
363.042	69.9141
365.935	25.166
368.827	34.7647
371.72	47.436
374.613	73.8687
377.505	27.6174
380.398	75.9336
383.291	27.4248
386.184	20.5632
389.076	67.4314
391.969	38.9612
394.862	40.6223
397.754	68.7729
400.647	18.3003
403.54	47.6677
406.433	21.3145
409.325	67.0774
412.218	5.11963
415.111	1.79663
418.003	5.55225
420.896	15.917
423.789	53.2707
426.681	25.4451
429.574	25.3855
432.467	80.0742
435.36	80.2532
438.252	44.908
441.145	50.2483
444.038	2.16528
446.93	66.1489
449.823	79.7649
452.716	45.2766
455.608	70.2107
458.501	66.1873
461.394	29.5701
464.286	28.4043
467.179	58.3389
470.072	72.0273
472.965	40.332
475.857	79.6726
478.75	26.446
481.643	28.825
484.535	48.0281
487.428	57.9023
490.321	35.2022
493.214	92.5757
496.106	74.3923
498.999	35.4653
501.892	48.4097
504.784	60.8152
507.677	35.9873
510.57	47.9941
513.462	45.2031
516.355	69.3042
519.248	47.0154
522.14	83.958
525.033	41.4172
527.926	15.865
530.819	25.9885
533.711	22.72
536.604	38.4834
539.497	61.5513
542.389	38.925
545.282	24.3545
548.175	60.4314
551.067	12.5947
553.96	60.416
556.853	5.7229
559.745	43.8242
562.638	52.6643
565.531	85.0808
568.424	67.8931
571.316	9.31177
574.209	79.3848
577.102	41.8206
579.994	22.3774
582.887	74.1455
585.78	21.5742
588.673	13.405
591.565	31.2031
594.458	16.3577
597.351	63.0383
600.243	76.4182
603.136	46.5356
606.029	34.3704
608.921	41.366
611.814	6.93555
614.707	26.2847
617.6	58.8835
620.492	18.4575
623.385	58.353
626.278	30.7493
629.17	60.2122
632.063	49.7129
634.956	34.8652
637.848	22.1455
640.741	56.7576
643.634	2.66675
646.527	36.4793
649.419	82.3281
652.312	47.501
655.205	10.9878
658.097	63.3967
660.99	27.1641
663.883	3.15991
666.775	44.449
669.668	87.3948
672.561	6.68091
675.454	6.08374
678.346	49.1631
681.239	42.4595
684.132	76.1487
687.024	13.345
689.917	70.0471
692.81	16.1445
695.702	35.824
698.595	39.4883
701.488	59.646
704.381	50.7593
707.273	17.5786
710.166	31.7564
713.059	35.3152
715.951	24.626
718.844	33.1555
721.737	57.2993
724.63	38.2004
727.522	47.8379
730.415	42.0185
733.308	4.10498
736.2	26.2546
739.093	27.9807
741.986	5.1521
744.878	27.2551
747.771	41.6038
750.664	1.62891
753.557	38.0271
756.449	22.3189
759.342	47.4907
762.235	19.8296
765.127	51.1367
768.02	38.4292
770.913	30.0068
773.805	18.5169
776.698	39.9314
779.591	31.041
782.484	40.5457
785.376	8.72241
788.269	69.4746
791.162	46.2812
794.054	11.0501
796.947	44.9524
799.84	34.2461
802.732	68.6763
805.625	66.7197
808.518	53.8491
811.41	71.134
814.303	29.7373
817.196	55.8645
820.089	65.749
822.981	55.7629
825.874	38.6611
828.767	6.55176
831.659	41.1931
834.552	58.4858
837.445	35.6221
840.337	47.8025
843.23	76.3892
846.123	49.5457
849.016	62.1404
851.908	36.7429
854.801	10.3279
857.694	42.7024
860.586	40.5933
863.479	49.9692
866.372	54.0686
869.264	90.3227
872.157	32.5752
875.05	24.2463
877.943	53.3591
880.835	34.5051
883.728	35.7959
886.621	30.3931
889.513	10.0723
892.406	40.4546
895.299	5.67725
898.192	30.749
901.084	20.6023
903.977	35.6323
906.87	47.0266
909.762	39.3225
912.655	26.7017
915.548	22.3669
918.44	48.3904
921.333	29.8569
924.226	5.67651
927.119	46.1016
930.011	12.0832
932.904	26.1838
935.797	22.3074
938.689	5.28735
941.582	7.36499
944.475	62.1831
947.367	37.3735
950.26	19.3071
953.153	39.5508
956.045	7.39136
958.938	71.6289
961.831	67.1826
964.724	45.2602
967.616	8.15454
970.509	63.3386
973.402	26.873
976.294	4.95581
979.187	43.2705
982.08	37.7285
984.972	1.39258
987.865	18.9854
990.758	25.5454
993.651	28.47
996.543	45.5474
999.436	46.6653
1002.33	19.7744
1005.22	63.5408
1008.11	27.2688
1011.01	14.0354
1013.9	7.01196
1016.79	42.0564
1019.68	22.3047
1022.58	48.419
1025.47	62.3188
1028.36	88.3091
1031.26	79.6594
1034.15	30.7424
1037.04	69.3567
1039.93	31.5525
1042.83	2.54858
1045.72	14.9424
1048.61	75.5715
1051.51	57.3425
1054.4	13.4482
1057.29	63.8098
1060.18	50.5547
1063.08	19.4265
1065.97	6.82446
1068.86	59.4536
1071.75	22.5024
1074.65	36.0894
1077.54	16.2695
1080.43	58.4685
1083.32	44.543
1086.22	42.846
1089.11	43.6655
1092	32.4172
1094.89	22.9595
1097.79	26.6582
1100.68	22.6721
1103.57	61.3833
1106.47	73.5449
1109.36	43.9319
1112.25	50.8037
1115.14	54.906
1118.04	42.189
1120.93	22.3189
1123.82	61.5596
1126.71	45.3904
1129.61	1.32105
1132.5	67.147
1135.39	38.0435
1138.29	0.151855
1141.18	51.2769
1144.07	0.161865
1146.96	15.8052
1149.86	80.2615
1152.75	39.354
1155.64	36.1423
1158.53	23.3957
1161.43	53.3127
1164.32	11.3132
1167.21	56.2163
1170.11	64.397
1173	11.9839
1175.89	57.4265
1178.78	56.5105
1181.68	55.4019
1184.57	24.1616
1187.46	34.1733
1190.35	1.74072
1193.25	1.2085
1196.14	25.2678
1199.03	27.1414
1201.92	15.2974
1204.82	27.1531
1207.71	66.7107
1210.6	31.3315
1213.5	10.9871
1216.39	7.76196
1219.28	43.4812
1222.17	34.1401
