Measurement: Raman, 785 nm, unoriented, Raman Data Processed
Mineral: Iron
Rruff sample: R070255
Ideal chemistry: Fe
Locality: Camp Creek district, Silver Bow County, Montana, USA
Source: Michael Scott
Description: Steel-gray anhedral grains
Raman shift (cm-1)	intensity
164.892	0
167.785	38.6466
170.677	93.3438
173.57	151.832
176.463	142.884
179.356	14.5893
182.248	8.6647
185.141	66.8998
188.034	124.028
190.926	66.6064
193.819	105.706
196.712	92.0995
199.604	53.982
202.497	56.648
205.39	42.2442
208.282	1.22609
211.175	32.7957
214.068	44.6657
216.961	79.3071
219.853	127.908
222.746	134.476
225.639	135.085
228.531	119.592
231.424	78.1908
234.317	123.924
237.209	132.084
240.102	142.552
242.995	132.375
245.888	140.087
248.78	133.237
251.673	156.151
254.566	181.869
257.458	121.597
260.351	120.824
263.244	104.372
266.137	103.283
269.029	70.6143
271.922	75.5641
274.815	82.5377
277.707	75.9962
280.6	97.4154
283.493	72.5507
286.385	95.964
289.278	129.16
292.171	95.1579
295.063	79.606
297.956	58.5416
300.849	66.6544
303.742	66.6443
306.634	43.3425
309.527	43.0621
312.42	34.7788
315.312	29.625
318.205	5.48928
321.098	33.7668
323.99	11.2131
326.883	15.1815
329.776	18.9809
332.669	2.92534
335.561	20.1172
338.454	22.3267
341.347	9.67287
344.239	7.22433
347.132	24.72
350.025	13.8601
352.918	11.4535
355.81	0.000922
358.703	0.887669
361.596	11.3522
364.488	1.01959
367.381	4.38523
370.274	22.0829
373.166	15.6829
376.059	31.0913
378.952	29.8158
381.844	30.6611
384.737	27.0695
387.63	23.6855
390.523	13.7924
393.415	28.7233
396.308	37.4525
399.201	34.1576
402.093	30.5591
404.986	53.7816
407.879	38.2376
410.772	39.6936
413.664	49.3963
416.557	27.02
419.45	42.6338
422.342	17.6596
425.235	43.1517
428.128	51.4477
431.02	15.3956
433.913	3.66297
436.806	19.5886
439.699	4.39651
442.591	4.44652
445.484	5.85812
448.377	23.0365
451.269	26.0607
454.162	25.2244
457.055	6.8547
459.947	9.67126
462.84	38.1718
465.733	21.6139
468.625	32.4461
471.518	21.8515
474.411	16.5566
477.304	31.9491
480.196	27.3747
483.089	29.1109
485.982	21.0498
488.874	26.3325
491.767	26.4946
494.66	17.7186
497.553	36.2083
500.445	12.9994
503.338	17.8181
506.231	24.3232
509.123	25.0701
512.016	16.7118
514.909	3.8506
517.802	7.03715
520.694	0.151906
523.587	15.3076
526.48	25.8245
529.372	17.2801
532.265	1.59907
535.158	16.6536
538.05	15.7742
540.943	16.6893
543.836	0.375804
546.729	1.82012
549.621	25.5569
552.514	23.1545
555.407	14.7368
558.299	28.4553
561.192	24.9383
564.085	0.833277
566.977	4.69016
569.87	14.9758
572.763	24.5467
575.655	38.3336
578.548	6.59954
581.441	0.161692
584.333	32.337
587.226	44.3472
590.119	32.8872
593.012	10.0918
595.904	23.5752
598.797	3.15656
601.69	33.4789
604.582	25.8378
607.475	4.27765
610.368	27.4933
613.26	17.6111
616.153	19.8757
619.046	8.77695
621.939	4.03271
624.831	17.9461
627.724	22.8128
630.617	31.2818
633.509	1.81253
636.402	32.6231
639.295	30.9831
642.188	16.0543
645.08	14.4695
647.973	2.76689
650.866	1.53934
653.758	22.7021
656.651	4.95414
659.544	25.0616
662.436	1.65981
665.329	34.2665
668.222	17.1752
671.115	12.9928
674.007	19.0074
676.9	31.9731
679.793	16.1502
682.685	7.90596
685.578	8.75319
688.471	8.79527
691.363	15.1437
694.256	6.66005
697.149	8.94432
700.042	3.49062
702.934	20.4913
705.827	36.5656
708.72	26.9784
711.612	32.1729
714.505	36.6784
717.398	51.2082
720.29	35.8995
723.183	50.8309
726.076	32.514
728.968	0.267117
731.861	5.39432
734.754	0.496547
737.647	8.04711
740.539	16.4054
743.432	39.4128
746.325	59.041
749.217	24.8348
752.11	40.5791
755.003	38.4937
757.895	8.13298
760.788	34.5146
763.681	10.3345
766.574	23.153
769.466	23.5532
772.359	16.0708
775.252	8.5559
778.144	1.97709
781.037	13.6531
783.93	24.261
786.822	37.4704
789.715	23.421
792.608	19.2525
795.501	6.92654
798.393	25.9941
801.286	4.87532
804.179	1.99722
807.071	24.5541
809.964	4.90091
812.857	41.0678
815.75	3.04285
818.642	2.31812
821.535	18.0977
824.428	38.2847
827.32	24.4105
830.213	11.81
833.106	38.272
835.998	31.2667
838.891	21.4289
841.784	24.6813
844.677	13.3524
847.569	20.1348
850.462	13.8911
853.355	0.599651
856.247	22.8706
859.14	26.9111
862.033	4.7895
864.925	3.86549
867.818	46.0023
870.711	36.8236
873.604	5.57138
876.496	5.10808
879.389	51.7347
882.282	8.64173
885.174	8.13511
888.067	2.72528
890.96	30.7299
893.852	1.44674
896.745	11.4401
899.638	0.169946
902.53	56.85
905.423	35.6065
908.316	4.09765
911.209	24.4573
914.101	19.0328
916.994	33.1387
919.887	10.7633
922.779	12.5232
925.672	0.374026
928.565	10.6912
931.457	2.02316
934.35	23.6441
937.243	0.921149
940.136	20.0858
943.028	10.2017
945.921	28.4958
948.814	27.8567
951.706	9.53875
954.599	14.1682
957.492	11.4605
960.385	24.2015
963.277	9.08003
966.17	15.5149
969.063	2.59127
971.955	30.0972
974.848	26.4824
977.741	7.08363
980.633	24.2028
983.526	13.7287
986.419	30.9073
989.312	18.3669
992.204	8.72894
995.097	29.6408
997.99	37.9311
1000.88	5.09639
1003.77	25.2836
1006.67	11.5522
1009.56	12.3253
1012.45	26.7928
1015.35	6.58199
1018.24	23.4368
1021.13	1.48473
1024.02	1.13093
1026.92	31.3345
1029.81	10.9023
1032.7	8.86079
1035.6	18.531
1038.49	20.203
1041.38	11.6825
1044.27	35.7144
1047.17	13.903
1050.06	2.76356
1052.95	26.2617
1055.84	8.72038
1058.74	21.6127
1061.63	42.1245
1064.52	15.514
1067.41	17.3275
1070.31	14.9431
1073.2	11.8858
1076.09	9.04197
1078.98	2.12264
1081.88	2.73477
1084.77	23.2361
1087.66	1.15356
1090.56	31.5783
1093.45	5.65773
1096.34	38.1509
1099.23	22.2476
1102.13	49.4839
1105.02	18.3045
1107.91	17.3242
1110.81	16.3905
1113.7	30.5898
1116.59	4.01717
1119.48	19.5544
1122.38	22.2928
1125.27	8.2735
1128.16	16.8554
1131.05	17.0956
1133.95	4.64625
1136.84	16.1635
1139.73	23.5028
1142.62	25.0534
1145.52	36.5632
1148.41	0.200291
1151.3	21.1983
1154.19	12.8589
1157.09	6.9765
1159.98	19.8977
1162.87	7.52232
1165.77	14.9454
1168.66	15.4639
1171.55	31.8801
1174.44	11.5187
1177.34	23.4478
1180.23	38.602
1183.12	10.5876
1186.02	3.52623
1188.91	26.8151
1191.8	3.56136
1194.69	14.5517
1197.59	12.7195
1200.48	0.751595
1203.37	40.6009
1206.26	13.3797
1209.16	25.3614
1212.05	0.91178
1214.94	32.6836
1217.84	38.3904
1220.73	30.7656
1223.62	19.9042
1226.51	6.89453
1229.41	19.2143
1232.3	10.2334
1235.19	13.8752
1238.08	11.3537
1240.98	4.19911
