Measurement: Raman, 532 nm, unoriented, Raman Data Processed
Mineral: Iron
Rruff sample: R070255
Ideal chemistry: Fe
Locality: Camp Creek district, Silver Bow County, Montana, USA
Source: Michael Scott
Description: Steel-gray anhedral grains
Raman shift (cm-1)	intensity
158.822	0
161.715	5.38818
164.607	23.0294
167.5	19.5399
170.393	54.8509
173.286	64.7665
176.178	82.0725
179.071	50.3174
181.964	49.2645
184.856	49.0792
187.749	78.4049
190.642	34.4618
193.535	64.6606
196.427	84.8577
199.32	59.6704
202.213	52.4286
205.105	36.7853
207.998	53.3468
210.891	45.8817
213.783	24.213
216.676	52.0835
219.569	35.9154
222.462	1.26221
225.354	14.9992
228.247	14.7235
231.14	42.6551
234.032	43.5315
236.925	4.5896
239.818	98.655
242.71	57.3668
245.603	55.1525
248.496	46.6495
251.388	41.2542
254.281	54.0727
257.174	45.6571
260.067	27.392
262.959	44.2478
265.852	32.6138
268.745	30.454
271.637	20.7021
274.53	22.3751
277.423	2.66614
280.315	15.6776
283.208	6.14746
286.101	45.6617
288.994	11.9658
291.886	47.4557
294.779	29.4831
297.672	11.2884
300.564	30.3441
303.457	29.0803
306.35	41.5466
309.243	19.6315
312.135	18.613
315.028	26.7142
317.921	18.8915
320.813	0.647095
323.706	4.61816
326.599	21.0217
329.491	35.425
332.384	6.97546
335.277	45.3046
338.17	43.3882
341.062	32.818
343.955	29.0968
346.848	22.9044
349.74	23.7433
352.633	38.2542
355.526	7.51831
358.418	6.70227
361.311	19.874
364.204	21.1855
367.097	19.1123
369.989	27.8107
372.882	31.0643
375.775	36.4608
378.667	4.43799
381.56	28.5254
384.453	24.1902
387.346	46.8215
390.238	29.7029
393.131	19.6227
396.024	9.16675
398.916	24.976
401.809	5.22754
404.702	14.7967
407.594	21.5233
410.487	19.275
413.38	31.0541
416.272	28.8368
419.165	4.50537
422.058	49.1902
424.951	32.2593
427.843	26.5122
430.736	35.6318
433.629	37.3929
436.521	26.3374
439.414	11.1215
442.307	22.1112
445.2	50.2159
448.092	39.2289
450.985	16.0663
453.878	0.680054
456.77	2.67517
459.663	35.7452
462.556	26.6047
465.448	51.5675
468.341	33.7179
471.234	30.6464
474.127	39.6968
477.019	25.6989
479.912	16.6349
482.805	31.0821
485.697	26.4563
488.59	9.03687
491.483	16.3125
494.375	26.0939
497.268	20.1804
500.161	43.9252
503.053	11.0693
505.946	28.9098
508.839	6.62476
511.732	13.3197
514.624	33.0137
517.517	3.89441
520.41	43.6189
523.302	49.8092
526.195	35.9625
529.088	32.105
531.981	9.85571
534.873	3.56506
537.766	14.9845
540.659	13.1027
543.551	36.8931
546.444	47.0807
549.337	31.6119
552.229	19.5486
555.122	36.6467
558.015	43.0723
560.908	42.8918
563.8	3.84619
566.693	24.5652
569.586	62.6914
572.478	34.2477
575.371	21.4623
578.264	1.27014
581.156	16.3029
584.049	8.7771
586.942	18.9507
589.835	29.7012
592.727	43.2839
595.62	18.7824
598.513	4.69946
601.405	42.4424
604.298	59.8076
607.191	19.9204
610.083	37.8433
612.976	15.0608
615.869	0.157715
618.762	21.5737
621.654	20.4404
624.547	48.4336
627.44	43.7161
630.332	46.2165
633.225	1.12231
636.118	1.36206
639.01	56.3865
641.903	49.1987
644.796	28.2839
647.689	48.259
650.581	44.779
653.474	31.0989
656.367	19.1482
659.259	21.9631
662.152	11.3491
665.045	27.6506
667.938	17.2659
670.83	14.9827
673.723	36.3848
676.616	27.5715
679.508	49.6816
682.401	19.4788
685.294	31.8088
688.186	18.7783
691.079	70.9131
693.972	30.2305
696.865	44.1457
699.757	28.4978
702.65	2.20068
705.543	16.2581
708.435	22.9985
711.328	52.115
714.221	30.1599
717.113	37.0122
720.006	23.6279
722.899	8.13354
725.792	14.5857
728.684	50.835
731.577	57.6804
734.47	28.6951
737.362	37.9648
740.255	50.3
743.148	5.00024
746.04	5.96191
748.933	7.45239
751.826	3.16968
754.719	2.69971
757.611	70.8938
760.504	51.6292
763.397	7.86157
766.289	17.1167
769.182	73.7935
772.075	30.6977
774.967	52.9617
777.86	29.8037
780.753	28.2485
783.646	13.041
786.538	24.2158
789.431	23.2676
792.324	18.9875
795.216	9.21851
798.109	28.3455
801.002	42.6645
803.894	39.6665
806.787	35.8535
809.68	58.3513
812.573	50.6694
815.465	30.623
818.358	31.3596
821.251	31.4258
824.143	6.78467
827.036	39.1392
829.929	16.3169
832.822	55.0764
835.714	13.2515
838.607	48.9954
841.5	45.7358
844.392	32.0032
847.285	66.9683
850.178	37.2854
853.07	39.6882
855.963	34.127
858.856	61.1418
861.749	6.80078
864.641	26.855
867.534	30.1028
870.427	17.8147
873.319	37.0054
876.212	57.5147
879.105	3.93457
881.997	55.8572
884.89	29.657
887.783	28.6326
890.676	45.3972
893.568	7.26025
896.461	62.5193
899.354	13.364
902.246	27.8601
905.139	47.4185
908.032	12.0164
910.924	8.84692
913.817	50.4307
916.71	19.7554
919.602	7.92212
922.495	31.9275
925.388	18.1528
928.281	20.5154
931.173	31.481
934.066	47.2854
936.959	4.80689
939.851	33.0542
942.744	47.9893
945.637	36.9016
948.529	23.4387
951.422	45.8296
954.315	16.7688
957.208	11.6631
960.1	18.5552
962.993	64.675
965.886	63.0286
968.778	30.7163
971.671	47.8845
974.564	22.0649
977.457	39.5181
980.349	37.6668
983.242	56.8149
986.135	32.1582
989.027	70.4077
991.92	50.2556
994.813	59.8594
997.705	7.61621
1000.6	2.13477
1003.49	11.2505
1006.38	17.7737
1009.28	35.3403
1012.17	34.2131
1015.06	67.4194
1017.95	34.9822
1020.85	31.0532
1023.74	6.46924
1026.63	12.147
1029.53	17.2217
1032.42	8.95215
1035.31	52.0413
1038.2	11.5576
1041.1	55.9753
1043.99	13.2932
1046.88	13.4888
1049.77	41.5217
1052.67	60.2031
1055.56	46.1223
1058.45	22.761
1061.35	0.182129
1064.24	23.8491
1067.13	32.311
1070.02	8.37793
1072.92	32.52
1075.81	31.7822
1078.7	25.333
1081.59	15.6675
1084.49	58.3728
1087.38	28.9153
1090.27	41.6323
1093.16	10.8374
1096.06	12.803
1098.95	58.3752
1101.84	22.5823
1104.73	75.3296
1107.63	24.8181
1110.52	25.5398
1113.41	26.9534
1116.31	24.0176
1119.2	32.554
1122.09	41.0505
1124.98	67.9641
1127.88	17.8809
1130.77	14.8965
1133.66	47.3184
1136.56	42.0059
1139.45	16.9592
1142.34	5.21899
1145.23	19.7598
1148.13	24.2136
1151.02	11.4219
1153.91	35.47
1156.8	64.2849
1159.7	73
1162.59	20.7861
1165.48	43.4116
1168.38	35.24
1171.27	32.8074
1174.16	79.6343
1177.05	52.1328
1179.95	22.498
1182.84	45.6414
1185.73	55.749
1188.62	12.491
1191.52	40.8826
1194.41	42.9273
1197.3	57.4724
1200.19	70.2383
1203.09	5.06299
1205.98	28.5398
1208.87	14.6025
1211.77	10.7827
1214.66	28.2795
1217.55	36.1946
1220.44	58.0708
1223.34	38.6804
1226.23	55.8247
1229.12	17.812
1232.01	48.4695
1234.91	21.2073
1237.8	73.7212
1240.69	68.4014
1243.59	27.7554
1246.48	24.7632
1249.37	19.0986
1252.26	61.0727
1255.16	20.6453
1258.05	24.4944
1260.94	3.35693
1263.83	41.2256
1266.73	52.6558
1269.62	42.3442
1272.51	86.7605
1275.4	78.4651
1278.3	73.4944
1281.19	21.4416
1284.08	41.6162
1286.98	41.331
1289.87	99.3118
1292.76	17.3855
1295.65	1.26074
1298.55	48.8135
1301.44	76.7927
1304.33	9.56836
1307.22	75.8123
1310.12	71.3237
1313.01	7.50073
