Measurement: Raman, 780 nm, unoriented, Raman Data Processed
Mineral: Isocubanite
Rruff sample: R090050
Ideal chemistry: Cu^1+^Fe^2+^Fe^3+^S^2-^_3_
Locality: Henderson #2 mine, Chibougamau, Quebec, Canada
Source: Lloyd Twaites LT1378
Description: The sample was obtained by heating cubanite, R061068. It was heated first at T = 200°C for a day, followed by T = 160°C for five weeks.
Measured chemistry: Cu_1.00_Fe_2.00_S_3.00_
Raman shift (cm-1)	intensity
110.346	0
113.721	8.45273
117.095	33.4122
120.47	7.09418
123.845	33.3439
127.22	23.3975
130.595	28.6159
133.97	13.2983
137.344	36.489
140.719	28.6299
144.094	8.92947
147.469	2.36267
150.844	22.4381
154.218	2.59624
157.593	3.93536
160.968	1.56888
164.343	0.442184
167.718	2.44096
171.093	17.05
174.467	9.98978
177.842	16.3591
181.217	2.30672
184.592	21.6297
187.966	21.3979
191.341	7.10349
194.716	14.4111
198.091	14.3674
201.466	3.46526
204.841	15.2887
208.215	25.9886
211.59	9.2682
214.965	14.494
218.34	9.36848
221.715	26.6218
225.089	14.9993
228.464	19.5376
231.839	6.56273
235.214	19.9233
238.589	27.1333
241.964	26.007
245.338	29.3961
248.713	33.8976
252.088	19.2566
255.463	10.3315
258.838	7.36652
262.212	11.6741
265.587	4.53597
268.962	21.2533
272.337	7.88448
275.712	25.349
279.087	15.8673
282.461	21.9047
285.836	14.0377
289.211	15.5831
292.586	5.09859
295.961	8.64328
299.335	0.70549
302.71	6.90433
306.085	5.0697
309.46	15.9365
312.835	4.44896
316.209	17.2564
319.584	14.4341
322.959	3.82907
326.334	8.45526
329.709	5.31035
333.084	10.5573
336.458	25.0058
339.833	3.35254
343.208	5.00417
346.583	0.287003
349.958	8.89477
353.332	4.36217
356.707	22.2581
360.082	19.0754
363.457	9.40056
366.832	19.6981
370.207	8.70649
373.581	18.3906
376.956	14.9223
380.331	9.05514
383.706	18.215
387.081	18.0542
390.455	12.0625
393.83	20.3826
397.205	18.8445
400.58	16.5963
403.955	3.4164
407.329	3.50875
410.704	6.98199
414.079	16.6387
417.454	25.8636
420.829	10.312
424.204	23.6506
427.578	13.2126
430.953	23.4865
434.328	20.9887
437.703	19.799
441.078	16.6945
444.452	31.4956
447.827	10.9185
451.202	4.51094
454.577	34.9225
457.952	22.912
461.327	13.9004
464.701	6.10292
468.076	15.4524
471.451	10.7573
474.826	5.42181
478.201	23.1557
481.575	1.11279
484.95	18.5293
488.325	6.90597
491.7	14.1303
495.075	2.53667
498.45	13.029
501.824	16.2247
505.199	23.188
508.574	8.73669
511.949	1.33369
515.323	6.28612
518.698	21.9282
522.073	4.86099
525.448	7.20839
528.823	5.17075
532.198	9.41496
535.572	10.9391
538.947	30.5107
542.322	19.6987
545.697	12.0962
549.072	7.60184
552.447	10.8072
555.821	24.8407
559.196	5.73537
562.571	18.372
565.946	12.9318
569.321	17.2104
572.695	3.2011
576.07	7.82096
579.445	12.5819
582.82	0.375633
586.195	7.67315
589.569	6.09735
592.944	13.9681
596.319	16.5627
599.694	3.14062
603.069	11.3549
606.443	12.3323
609.818	12.8341
613.193	7.45044
616.568	15.1698
619.943	4.78169
623.318	7.58318
626.692	2.50378
630.067	13.0159
633.442	5.47181
636.817	10.9447
640.192	9.59232
643.567	14.2055
646.941	14.1723
650.316	0.060722
653.691	13.657
657.066	32.6035
660.441	20.8138
663.815	20.9812
667.19	15.4204
670.565	20.0648
673.94	18.8866
677.315	26.5526
680.689	31.1269
684.064	30.7876
687.439	17.1716
690.814	12.9435
694.189	22.196
697.563	4.90682
700.938	5.89478
704.313	26.4647
707.688	19.4587
711.063	10.6664
714.438	3.55891
717.812	23.693
721.187	6.52164
724.562	8.50398
727.937	3.06511
731.312	4.78444
734.687	15.5496
738.061	10.848
741.436	8.66761
744.811	19.6251
748.186	10.0716
751.561	5.28085
754.935	19.6875
758.31	5.50881
761.685	19.0795
765.06	9.93503
768.435	14.1924
771.809	10.2357
775.184	15.7185
778.559	4.96266
781.934	15.1503
785.309	14.0789
788.683	2.66586
792.058	11.8629
795.433	5.77332
798.808	1.03847
802.183	18.1941
805.558	6.04016
808.932	11.1502
812.307	14.1878
815.682	1.96006
819.057	10.0328
822.432	11.393
825.807	23.8469
829.181	8.65039
832.556	11.8552
835.931	21.4728
839.306	21.2853
842.681	19.0129
846.055	24.2094
849.43	16.5589
852.805	9.28821
856.18	19.1442
859.555	27.4245
862.929	21.0481
866.304	30.4149
869.679	8.56979
873.054	17.4893
876.429	14.3221
879.803	17.4592
883.178	18.1517
886.553	18.3108
889.928	14.5629
893.303	6.74708
896.678	9.32472
900.052	17.077
903.427	13.6704
906.802	10.7862
910.177	13.3315
913.552	13.0102
916.927	10.2837
920.301	8.56343
923.676	6.21699
927.051	11.6231
930.426	15.8233
933.801	16.298
937.175	14.6664
940.55	1.707
943.925	12.4293
947.3	4.33978
950.675	14.0775
954.049	12.7267
957.424	9.92164
960.799	8.98647
964.174	17.4977
967.549	17.7507
970.923	21.7079
974.298	4.9893
977.673	13.0367
981.048	14.1752
984.423	7.43407
987.798	4.34706
991.172	29.1037
994.547	13.3626
997.922	13.6767
1001.3	12.8781
1004.67	11.2089
1008.05	5.32779
1011.42	11.7878
1014.8	10.44
1018.17	22.8368
1021.55	17.9061
1024.92	28.5501
1028.3	20.9426
1031.67	22.6768
1035.05	3.28168
1038.42	3.08978
1041.8	15.9373
1045.17	24.4039
1048.54	27.4209
1051.92	28.9086
1055.29	15.4489
1058.67	13.3187
1062.04	8.85602
1065.42	28.0092
1068.79	14.374
1072.17	15.9346
1075.54	16.2704
1078.92	23.287
1082.29	10.4748
1085.67	18.0048
1089.04	11.8014
1092.42	19.9455
1095.79	11.9813
1099.17	18.6062
1102.54	14.6724
1105.92	10.3554
1109.29	6.02872
1112.67	8.6781
1116.04	16.7523
1119.41	25.6491
1122.79	0.01992
1126.16	8.31691
1129.54	9.45248
1132.91	10.9589
1136.29	8.77628
1139.66	7.86599
1143.04	3.31773
1146.41	11.3184
1149.79	14.1612
1153.16	6.37038
1156.54	15.6173
1159.91	0.114502
1163.29	12.496
1166.66	12.842
1170.04	7.55081
1173.41	8.61984
1176.79	13.9273
1180.16	16.2721
1183.54	18.3063
1186.91	7.07952
1190.29	9.3465
1193.66	0.830521
1197.04	13.3045
1200.41	13.5542
1203.79	8.30185
1207.16	5.17509
1210.54	4.24911
1213.91	14.6688
1217.29	15.2669
1220.66	10.108
1224.04	0.502098
1227.41	17.521
1230.78	15.9733
1234.16	1.60339
1237.53	9.48475
1240.91	12.1617
1244.28	14.4503
1247.66	13.3757
1251.03	12.5172
1254.41	11.9436
1257.78	23.8928
1261.16	3.67165
1264.53	17.5699
1267.91	20.7989
1271.28	20.6787
1274.66	10.3863
1278.03	12.4693
1281.41	21.3368
1284.78	8.69085
