Measurement: Raman, 532 nm, unoriented, Raman Data Processed
Mineral: Isoferroplatinum
Rruff sample: R080067
Ideal chemistry: Pt_3_Fe
Locality: Chocó Department, Colombia
Source: Michael Scott
Description: Black metallic grains embedded in epoxy
Measured chemistry: (Pt_2.80_Ir_0.11_Pd_0.07_Os_0.02_)_Σ=3_(Fe_0.90_Cu_0.10_)_Σ=1_; trace amounts of Ru and Rh
Raman shift (cm-1)	intensity
115.013	0
118.388	5.28847
121.763	5.39101
125.138	0.798788
128.512	6.60374
131.887	9.04621
135.262	2.25482
138.637	10.487
142.012	5.48675
145.386	2.41766
148.761	5.61439
152.136	5.04088
155.511	5.40675
158.886	1.04483
162.26	2.17327
165.635	1.44945
169.01	2.08623
172.385	3.2489
175.76	1.53174
179.135	1.21207
182.509	2.64954
185.884	4.97635
189.259	1.61427
192.634	5.79972
196.009	3.55593
199.383	1.64901
202.758	0.860371
206.133	2.68776
209.508	4.23691
212.883	3.89381
216.257	4.48779
219.632	2.04391
223.007	2.71447
226.382	1.74634
229.757	2.87859
233.132	1.59831
236.506	6.19712
239.881	2.09886
243.256	4.13608
246.631	0.043182
250.006	4.83512
253.381	1.43921
256.755	2.55976
260.13	1.67729
263.505	2.14815
266.88	1.42442
270.255	3.80109
273.629	0.20422
277.004	5.16254
280.379	3.93202
283.754	0.784128
287.129	2.6397
290.503	4.71531
293.878	3.41664
297.253	2.65886
300.628	2.62172
304.003	1.95731
307.378	5.09268
310.752	3.31783
314.127	3.48333
317.502	1.04776
320.877	0.215229
324.252	1.45297
327.627	5.02343
331.001	3.53662
334.376	4.91273
337.751	2.27995
341.126	4.08051
344.5	3.47427
347.875	1.2309
351.25	4.52401
354.625	0.110589
358	3.63726
361.375	2.16258
364.749	4.38535
368.124	4.77211
371.499	4.76964
374.874	2.11957
378.249	2.37948
381.623	4.1101
384.998	1.98293
388.373	2.33949
391.748	1.37063
395.123	1.43432
398.498	2.04965
401.872	2.48872
405.247	3.15873
408.622	2.93796
411.997	5.03502
415.372	3.7557
418.747	2.11695
422.121	5.82626
425.496	1.3483
428.871	1.52591
432.246	3.01126
435.621	1.97849
438.995	1.0627
442.37	5.97201
445.745	3.50827
449.12	3.31642
452.495	0.941716
455.87	3.4764
459.244	1.54021
462.619	1.01456
465.994	0.633322
469.369	1.10194
472.744	1.13961
476.118	3.21728
479.493	3.55393
482.868	2.36623
486.243	1.23774
489.618	1.18293
492.993	2.14943
496.367	2.03721
499.742	1.22346
503.117	2.23745
506.492	1.23286
509.866	4.9775
513.241	0.31657
516.616	2.14094
519.991	0.818995
523.366	1.90473
526.741	1.23702
530.115	0.408857
533.49	2.74299
536.865	5.32968
540.24	2.3773
543.615	1.19308
546.99	1.02859
550.364	3.28732
553.739	2.45661
557.114	3.48783
560.489	3.87247
563.864	0.376783
567.239	1.20246
570.613	3.23517
573.988	0.983216
577.363	2.64933
580.738	3.23492
584.112	1.32523
587.487	2.50382
590.862	3.47444
594.237	2.22136
597.612	0.188816
600.987	3.76745
604.361	2.84377
607.736	1.12624
611.111	3.73925
614.486	4.58304
617.861	2.83936
621.236	3.06538
624.61	2.81774
627.985	1.14051
631.36	2.13343
634.735	0.570107
638.11	0.639782
641.484	3.03842
644.859	3.93915
648.234	3.84125
651.609	2.18782
654.984	2.05697
658.359	2.27361
661.733	2.07705
665.108	1.74317
668.483	3.33434
671.858	0.848782
675.232	1.95836
678.607	2.82355
681.982	3.95499
685.357	1.95049
688.732	0.492745
692.107	2.93165
695.481	2.43056
698.856	1.1354
702.231	3.79736
705.606	1.21964
708.981	1.96052
712.356	2.27539
715.73	1.36679
719.105	1.783
722.48	2.80308
725.855	4.25655
729.23	1.37449
732.604	3.18555
735.979	1.59546
739.354	2.55244
742.729	0.555842
746.104	1.13932
749.479	2.93616
752.853	2.54326
756.228	4.29021
759.603	1.00019
762.978	0.881284
766.353	1.56603
769.727	2.27703
773.102	1.42322
776.477	0.833777
779.852	3.45975
783.227	2.07396
786.601	1.81776
789.976	1.7924
793.351	2.68298
796.726	0.143738
800.101	1.05644
803.476	3.9696
806.85	1.79418
810.225	1.07895
813.6	2.83552
816.975	3.30959
820.35	2.62865
823.725	2.5405
827.099	0.780948
830.474	1.55967
833.849	2.00731
837.224	3.61113
840.599	2.18607
843.973	1.04809
847.348	3.32401
850.723	4.78529
854.098	2.20458
857.473	1.32729
860.847	3.55394
864.222	3.66572
867.597	4.08054
870.972	1.6176
874.347	4.17377
877.722	2.99081
881.096	1.44538
884.471	4.83601
887.846	0.497909
891.221	3.46834
894.596	2.95562
897.971	1.57012
901.345	3.15894
904.72	1.11834
908.095	3.34682
911.47	1.52496
914.845	1.35271
918.219	0.899487
921.594	1.83873
924.969	0.183822
928.344	0.947984
931.719	2.40932
935.093	1.80282
938.468	2.58318
941.843	0.34143
945.218	2.99858
948.593	2.39478
951.967	1.62005
955.342	2.10186
958.717	3.15351
962.092	0.684945
965.467	2.77925
968.842	0.922898
972.216	1.18681
975.591	4.87354
978.966	2.39492
982.341	3.51106
985.716	0.869893
989.091	0.921127
992.465	3.00385
995.84	2.33849
999.215	2.03833
1002.59	1.08835
1005.97	1.17535
1009.34	2.64233
1012.71	2.05939
1016.09	0.7942
1019.46	2.42677
1022.84	4.43065
1026.21	2.13508
1029.59	4.38793
1032.96	2.41611
1036.34	1.40805
1039.71	0.984282
1043.09	1.09211
1046.46	2.75063
1049.84	5.20505
1053.21	0.245425
1056.59	1.98566
1059.96	0.811139
1063.34	1.48789
1066.71	0.919886
1070.09	2.88897
1073.46	2.4766
1076.84	1.59631
1080.21	1.92796
1083.59	1.5111
1086.96	1.86181
1090.34	4.50674
1093.71	2.26484
1097.09	4.94521
1100.46	4.15438
1103.83	2.92446
1107.21	0.832939
1110.58	1.82788
1113.96	3.17416
1117.33	0.51508
1120.71	1.8924
1124.08	2.42482
1127.46	1.72655
1130.83	0.187323
1134.21	0.914626
1137.58	0.161153
1140.96	1.69963
1144.33	2.34841
1147.71	2.16649
1151.08	3.03121
1154.46	3.96943
1157.83	3.62427
1161.21	3.33078
1164.58	2.58957
1167.96	4.32404
1171.33	3.48166
1174.7	0.445105
1178.08	2.79752
1181.45	2.75078
1184.83	0.135783
1188.2	3.49951
1191.58	0.300818
1194.95	2.21671
1198.33	2.22163
1201.7	2.50484
1205.08	2.67475
1208.45	1.28955
1211.83	2.58451
1215.2	3.96381
1218.58	0.296426
1221.95	2.06815
1225.33	6.18945
1228.7	0.983765
1232.08	1.61279
1235.45	3.9313
1238.83	2.36227
1242.2	1.05684
1245.58	0.410683
1248.95	2.5191
1252.33	1.7362
1255.7	4.141
1259.08	4.3724
1262.45	3.03116
1265.83	3.01075
1269.2	1.21956
1272.58	3.68909
1275.95	5.33235
