Measurement: Raman, 780 nm, unoriented, Raman Data Processed
Mineral: Isoferroplatinum
Rruff sample: R080067
Ideal chemistry: Pt_3_Fe
Locality: Chocó Department, Colombia
Source: Michael Scott
Description: Black metallic grains embedded in epoxy
Measured chemistry: (Pt_2.80_Ir_0.11_Pd_0.07_Os_0.02_)_Σ=3_(Fe_0.90_Cu_0.10_)_Σ=1_; trace amounts of Ru and Rh
Raman shift (cm-1)	intensity
117.594	0
120.968	1.88762
124.343	1.26605
127.718	1.20419
131.093	2.2317
134.468	1.57059
137.842	2.20388
141.217	2.66132
144.592	2.50619
147.967	0.66809
151.342	0.161207
154.716	0.693132
158.091	2.25405
161.466	0.730394
164.841	2.0294
168.216	1.40948
171.591	0.797379
174.965	1.21967
178.34	2.95299
181.715	1.35866
185.09	1.31536
188.465	0.116215
191.839	2.6912
195.214	2.21391
198.589	3.10781
201.964	2.70986
205.339	1.19878
208.714	1.99773
212.088	1.07401
215.463	2.47885
218.838	2.94176
222.213	5.49181
225.588	2.12401
228.962	3.13153
232.337	1.06502
235.712	1.3443
239.087	3.40852
242.462	0.146257
245.837	2.26991
249.211	3.02974
252.586	0.946473
255.961	1.6294
259.336	3.55876
262.711	2.1614
266.085	0.328709
269.46	1.61171
272.835	2.01628
276.21	2.4749
279.585	2.82489
282.959	1.13429
286.334	1.79189
289.709	1.19146
293.084	1.20926
296.459	0.948446
299.834	2.08154
303.208	1.02085
306.583	2.35377
309.958	1.15191
313.333	3.20103
316.708	0.564282
320.082	0.808683
323.457	2.40396
326.832	1.86489
330.207	0.368201
333.582	1.26627
336.957	2.34374
340.331	1.54012
343.706	1.45997
347.081	1.94002
350.456	0.311578
353.831	0.738409
357.205	1.80094
360.58	0.000676
363.955	0.430736
367.33	0.654184
370.705	0.316276
374.079	1.06377
377.454	0.324512
380.829	1.28898
384.204	0.974763
387.579	3.02364
390.954	0.778099
394.328	0.454025
397.703	0.02422
401.078	1.6652
404.453	1.79215
407.828	1.23694
411.202	0.40461
414.577	2.58022
417.952	1.96151
421.327	0.300435
424.702	1.58332
428.077	1.47794
431.451	1.96363
434.826	3.18451
438.201	0.079343
441.576	1.16232
444.951	0.825268
448.325	1.65555
451.7	2.33616
455.075	0.873988
458.45	2.59383
461.825	0.578738
465.2	1.97619
468.574	2.83133
471.949	1.57808
475.324	1.50267
478.699	0.44339
482.074	0.967072
485.449	1.16309
488.823	0.908969
492.198	0.675503
495.573	1.13416
498.948	0.90201
502.323	2.07215
505.697	2.11485
509.072	1.28212
512.447	1.27719
515.822	0.71977
519.197	1.85189
522.572	1.12055
525.946	2.15777
529.321	1.03964
532.696	0.507326
536.071	0.899904
539.446	1.84474
542.82	1.15788
546.195	2.06554
549.57	2.69362
552.945	1.9846
556.32	0.951102
559.694	1.20331
563.069	2.43454
566.444	1.83916
569.819	0.24897
573.194	1.17477
576.568	0.921537
579.943	0.989689
583.318	1.00418
586.693	0.286715
590.068	0.208267
593.443	0.166156
596.817	1.42088
600.192	1.76663
603.567	1.49413
606.942	0.950195
610.317	1.67702
613.692	0.058291
617.066	1.59889
620.441	0.89566
623.816	0.120219
627.191	1.44314
630.566	0.511074
633.94	1.11555
637.315	2.41436
640.69	1.42666
644.065	1.75067
647.44	1.59222
650.814	1.29819
654.189	0.88149
657.564	0.102023
660.939	1.81457
664.314	0.808588
667.688	1.01623
671.063	1.51909
674.438	1.74306
677.813	0.540176
681.188	0.281024
684.563	1.94434
687.937	1.84709
691.312	0.691798
694.687	1.81982
698.062	0.808844
701.437	0.401982
704.812	1.58013
708.186	0.940691
711.561	3.07392
714.936	1.52307
718.311	1.18168
721.686	1.05424
725.06	2.06853
728.435	1.71147
731.81	2.18437
735.185	0.239724
738.56	0.589289
741.934	1.48707
745.309	1.33425
748.684	1.48434
752.059	2.11019
755.434	0.777194
758.809	0.13728
762.183	1.57874
765.558	1.44474
768.933	2.10618
772.308	0.927456
775.683	0.028161
779.058	0.538563
782.432	0.188275
785.807	0.008491
789.182	1.07167
792.557	1.75623
795.932	1.70206
799.306	1.28546
802.681	2.08716
806.056	0.962681
809.431	1.80352
812.806	1.18604
816.181	0.014748
819.555	0.000953
822.93	0.993681
826.305	0.239004
829.68	1.22733
833.055	1.35486
836.429	0.740602
839.804	0.982163
843.179	1.43789
846.554	0.445472
849.929	1.20045
853.303	1.79208
856.678	0.762093
860.053	0.206413
863.428	2.32051
866.803	1.68707
870.178	1.68497
873.552	1.68061
876.927	0.645607
880.302	1.90064
883.677	0.995219
887.052	0.594104
890.427	1.54391
893.801	0.869515
897.176	1.54087
900.551	2.17704
903.926	1.382
907.301	1.10577
910.675	0.41381
914.05	1.64774
917.425	1.1614
920.8	0.838004
924.175	0.490723
927.549	1.8949
930.924	0.927271
934.299	1.6411
937.674	0.336799
941.049	1.68581
944.423	0.988915
947.798	1.54349
951.173	2.45259
954.548	1.4478
957.923	0.882116
961.298	1.31738
964.672	0.159408
968.047	2.85205
971.422	2.11173
974.797	1.81909
978.172	1.83809
981.546	2.50294
984.921	0.554115
988.296	1.48323
991.671	1.90148
995.046	0.99192
998.42	0.923136
1001.79	0.907559
1005.17	2.10129
1008.54	2.09962
1011.92	0.539342
1015.29	0.669577
1018.67	2.92118
1022.04	0.515763
1025.42	0.36505
1028.79	1.24136
1032.17	2.22374
1035.54	1.61309
1038.92	1.84116
1042.29	0.485843
1045.67	1.52851
1049.04	1.73792
1052.42	2.0436
1055.79	0.180186
1059.17	0.494697
1062.54	2.14164
1065.92	1.88553
1069.29	0.937426
1072.67	1.43686
1076.04	2.31629
1079.42	2.09243
1082.79	0.059308
1086.17	1.6398
1089.54	1.11366
1092.91	2.54919
1096.29	1.9552
1099.66	0.887024
1103.04	1.47197
1106.41	0.644022
1109.79	2.24384
1113.16	0.166834
1116.54	1.31354
1119.91	2.29384
1123.29	0.956556
1126.66	0.74947
1130.04	1.80381
1133.41	0.950181
1136.79	1.05617
1140.16	0.63981
1143.54	0.722004
1146.91	0.155724
1150.29	1.78792
1153.66	1.10668
1157.04	1.23633
1160.41	2.38731
1163.79	1.00591
1167.16	1.3193
1170.54	2.01005
1173.91	1.44587
1177.29	0.659268
1180.66	0.185602
1184.04	0.044287
1187.41	2.01132
1190.79	2.77279
1194.16	1.97282
1197.54	0.684055
1200.91	2.35992
1204.28	1.68504
1207.66	2.08821
1211.03	0.746686
1214.41	2.26614
1217.78	0.694328
1221.16	2.42001
1224.53	2.18256
1227.91	0.646904
1231.28	2.1813
1234.66	1.41506
1238.03	2.02973
1241.41	0.126309
1244.78	1.26652
1248.16	1.9704
1251.53	2.22005
1254.91	1.15173
1258.28	1.52534
1261.66	1.07455
1265.03	0.906172
1268.41	1.08621
1271.78	0.727027
1275.16	0
