Measurement: Raman, 780 nm, unoriented, Raman Data Processed
Mineral: Jordanite
Rruff sample: R070723
Ideal chemistry: Pb^2+^_14_(As^3+^,Sb^3+^)_6_S^2-^_23_
Locality: Lengenbach quarry, Binntal, Wallis (Valais), Switzerland
Source: Michael Scott
Description: Lead-gray metallic pseudohexagonal crystal in dolomite vug
Raman shift (cm-1)	intensity
141.219	0
144.111	33.835
147.004	10.5933
149.897	71.0664
152.79	221.394
155.682	322.256
158.575	384.036
161.468	490.764
164.36	406.116
167.253	360.739
170.146	336.161
173.038	379.761
175.931	448.802
178.824	450.106
181.716	438.722
184.609	549.023
187.502	664.39
190.395	733.265
193.287	872.485
196.18	1016.51
199.073	1079.58
201.965	1245.85
204.858	1193.2
207.751	1197.06
210.643	1207.96
213.536	1217.84
216.429	1035.66
219.322	960.315
222.214	873.307
225.107	701.581
228	617.143
230.892	542.21
233.785	368.084
236.678	328.411
239.571	281.891
242.463	287.101
245.356	219.035
248.249	225.392
251.141	134.238
254.034	244.779
256.927	102.466
259.819	107.404
262.712	59.2627
265.605	23.0508
268.498	2.29248
271.39	0.789551
274.283	44.2944
277.176	41.2668
280.068	5.96167
282.961	18.0884
285.854	35.6008
288.746	147.526
291.639	31.627
294.532	144.218
297.425	205.183
300.317	204.69
303.21	301.105
306.103	258.512
308.995	196.772
311.888	393.455
314.781	279.881
317.673	363.84
320.566	429.458
323.459	330.673
326.351	459.172
329.244	462.567
332.137	636.128
335.03	638.491
337.922	601.661
340.815	652.515
343.708	610.149
346.6	476.121
349.493	476.156
352.386	484.178
355.279	555.171
358.171	428.233
361.064	476.776
363.957	415.499
366.849	285.148
369.742	328.263
372.635	409.777
375.527	446.059
378.42	440.385
381.313	399.066
384.205	223.95
387.098	210.546
389.991	167.508
392.884	48.4851
395.776	119.717
398.669	39.2222
401.562	1.00977
404.454	76.3438
407.347	31.0418
410.24	40.1977
413.132	45.9519
416.025	80.6963
418.918	90.4106
421.811	41.3242
424.703	70.3323
427.596	23.3877
430.489	91.5991
433.381	10.8879
436.274	40.2512
439.167	3.604
442.06	65.145
444.952	85.7424
447.845	8.97144
450.738	33.4714
453.63	70.2239
456.523	128.333
459.416	31.7791
462.308	42.782
465.201	63.3848
468.094	102.773
470.986	74.7844
473.879	53.1865
476.772	42.1421
479.665	127.043
482.557	37.043
485.45	48.1826
488.343	61.6265
491.235	31.9758
494.128	103.672
497.021	69.0547
499.913	112.175
502.806	56.2056
505.699	43.627
508.592	63.4124
511.484	23.3401
514.377	74.9363
517.27	69.7541
520.162	37.0134
523.055	84.1252
525.948	48.0398
528.841	43.075
531.733	25.936
534.626	9.36499
537.519	88.4878
540.411	40.4497
543.304	53.4788
546.197	34.0894
549.089	4.89673
551.982	19.8789
554.875	73.9988
557.768	21.2803
560.66	70.0698
563.553	71.7292
566.446	94.5703
569.338	29.0466
572.231	55.2173
575.124	58.6738
578.016	94.2881
580.909	83.4553
583.802	89.5679
586.694	72.3272
589.587	27.3445
592.48	48.75
595.373	61.6819
598.265	51.8188
601.158	84.2637
604.051	58.052
606.943	65.5359
609.836	53.3477
612.729	62.3909
615.621	57.4587
618.514	119.045
621.407	86.0244
624.3	19.5139
627.192	50.2737
630.085	2.46582
632.978	78.9592
635.87	15.7471
638.763	20.0742
641.656	69.9531
644.548	29.2961
647.441	74.3569
650.334	114.358
653.227	14.4956
656.119	38.6257
659.012	90.9795
661.905	83.1187
664.797	7.84644
667.69	64.5942
670.583	78.6938
673.476	59.2937
676.368	49.55
679.261	52.6585
682.154	71.2656
685.046	71.4517
687.939	116.386
690.832	173.257
693.724	34.9568
696.617	83.6704
699.51	30.6394
702.403	37.8291
705.295	12.6968
708.188	99.72
711.081	71.7415
713.973	69.1409
716.866	58.5227
719.759	55.0889
722.651	33.064
725.544	71.0229
728.437	38.5725
731.33	23.1362
734.222	117.553
737.115	9.25854
740.008	70.0022
742.9	89.7864
745.793	6.5332
748.686	36.7517
751.578	81.5637
754.471	37.8423
757.364	52.8376
760.256	64.4197
763.149	140.574
766.042	28.2297
768.935	4.41602
771.827	5.30689
774.72	27.9924
777.613	36.4553
780.505	119.761
783.398	109.344
786.291	68.4387
789.183	40.6794
792.076	21.5254
794.969	28.1428
797.862	136.319
800.754	91.1821
803.647	105.736
806.54	76.6265
809.432	15.3877
812.325	37.7144
815.218	78.3645
818.111	74.5164
821.003	57.4275
823.896	146.477
826.789	49.8176
829.681	17.4238
832.574	48.2126
835.467	72.1758
838.359	55.3154
841.252	73.7812
844.145	62.0852
847.037	52.7759
849.93	18.2602
852.823	8.96558
855.716	31.9741
858.608	30.2
861.501	51.5359
864.394	65.8967
867.286	40.2759
870.179	101.681
873.072	43.7654
875.964	50.2954
878.857	32.4595
881.75	68.9431
884.643	82.2183
887.535	67.9993
890.428	51.3145
893.321	64.3201
896.213	91.3804
899.106	0.444824
901.999	64.908
904.891	93.0615
907.784	43.3801
910.677	22.3398
913.569	98.6389
916.462	44.8635
919.355	17.1831
922.248	37.4558
925.14	14.4553
928.033	64.657
930.926	81.7549
933.818	3.34692
936.711	19.4861
939.604	57.9377
942.496	68.301
945.389	44.4058
948.282	0.527344
951.175	22.6746
954.067	94.1711
956.96	112.885
959.853	72.2978
962.745	18.0894
965.638	42.7268
968.531	32.7129
971.423	14.4023
974.316	11.7627
977.209	16.3577
980.102	42.8618
982.994	21.8184
985.887	29.0684
988.78	20.2634
991.672	58.2227
994.565	67.5278
997.458	29.9229
1000.35	75.7649
1003.24	60.6074
1006.14	77.3184
1009.03	84.5117
1011.92	22.3467
1014.81	51.7812
1017.71	54.0881
1020.6	11.582
1023.49	52.4297
1026.38	101.793
1029.28	82.2966
1032.17	85.1074
1035.06	39.9731
1037.96	70.72
1040.85	81.9392
1043.74	32.4277
1046.63	77.9287
1049.53	45.6533
1052.42	35.2786
1055.31	48.3779
1058.2	86.1853
1061.1	114.974
1063.99	48.1392
1066.88	68.5562
1069.78	76.2817
1072.67	101.047
1075.56	44.6829
1078.45	64.0503
1081.35	62.3677
1084.24	50.2168
1087.13	17.7117
1090.02	9.09448
1092.92	44.7693
1095.81	23.5718
1098.7	73.1562
1101.6	17.8616
1104.49	47.24
1107.38	45.4158
1110.27	76.144
1113.17	42.2947
1116.06	71.5347
1118.95	38.8711
1121.84	16.7019
1124.74	77.8774
1127.63	70.0864
1130.52	69.0271
1133.41	18.7263
1136.31	56.5147
1139.2	94.1482
1142.09	15.0735
1144.98	41.8621
1147.88	62.9045
1150.77	33.3237
1153.66	52.1521
1156.56	68.4602
1159.45	73.6399
1162.34	36.2383
1165.23	36.2446
1168.13	81.7075
1171.02	52.3672
1173.91	61.7756
1176.81	84.1355
1179.7	113.219
1182.59	64.5647
1185.48	50.2617
1188.38	63.5615
1191.27	56.6753
1194.16	56.5786
1197.05	31.9602
1199.95	81.6724
1202.84	37.8281
1205.73	57.0168
1208.62	119.567
1211.52	9.09473
1214.41	50.5662
1217.3	36.8135
1220.2	70.6948
1223.09	96.0469
