Measurement: Raman, 532 nm, unoriented, Raman Data Processed
Mineral: Jordanite
Rruff sample: R070723
Ideal chemistry: Pb^2+^_14_(As^3+^,Sb^3+^)_6_S^2-^_23_
Locality: Lengenbach quarry, Binntal, Wallis (Valais), Switzerland
Source: Michael Scott
Description: Lead-gray metallic pseudohexagonal crystal in dolomite vug
Raman shift (cm-1)	intensity
160.143	0
163.036	12.7703
165.928	2.65631
168.821	75.5884
171.714	112.049
174.607	134.842
177.499	5.17938
180.392	85.7294
183.285	45.6103
186.177	46.134
189.07	70.6407
191.963	242.789
194.855	146.011
197.748	135.411
200.641	68.078
203.534	134.348
206.426	136.414
209.319	64.8421
212.212	207.354
215.104	214.601
217.997	130.018
220.89	165.047
223.782	169.256
226.675	147.582
229.568	104.543
232.46	143.065
235.353	144.698
238.246	62.7057
241.138	56.435
244.031	161.26
246.924	104.688
249.817	32.2006
252.709	110.673
255.602	170.132
258.495	57.6854
261.387	64.8319
264.28	97.2857
267.173	22.6761
270.066	114.529
272.958	110.894
275.851	181.152
278.744	87.0734
281.636	69.7843
284.529	98.4593
287.422	132.453
290.314	232.063
293.207	97.5226
296.1	213.011
298.993	70.8115
301.885	74.9836
304.778	146.533
307.671	8.64403
310.563	90.9688
313.456	123.251
316.349	46.6147
319.241	9.45732
322.134	30.938
325.027	67.3377
327.92	16.8377
330.812	114.215
333.705	217.657
336.598	89.1396
339.49	218.789
342.383	215.977
345.276	1.4422
348.168	125.139
351.061	70.5133
353.954	87.1369
356.846	44.5236
359.739	28.3669
362.632	140.041
365.525	82.3289
368.417	181.747
371.31	49.5167
374.203	86.9639
377.095	37.9305
379.988	86.5122
382.881	116.534
385.774	65.5447
388.666	131.191
391.559	112.541
394.452	85.3838
397.344	36.6585
400.237	23.8868
403.13	113.022
406.022	87.2959
408.915	114.322
411.808	25.8101
414.7	131.339
417.593	69.0239
420.486	53.311
423.379	87.4473
426.271	131.038
429.164	34.9818
432.057	124.527
434.949	99.9739
437.842	53.162
440.735	27.3273
443.627	110.71
446.52	38.5283
449.413	101.039
452.306	60.3313
455.198	127.294
458.091	69.7619
460.984	51.1666
463.876	100.442
466.769	149.885
469.662	126.728
472.555	57.3516
475.447	117.725
478.34	171.194
481.233	148.952
484.125	14.5845
487.018	41.2859
489.911	59.2362
492.803	119.369
495.696	105.651
498.589	43.3359
501.481	103.262
504.374	9.04172
507.267	97.7573
510.16	119.7
513.052	41.2324
515.945	144.382
518.838	220.575
521.73	42.0024
524.623	126.569
527.516	101.828
530.408	53.6087
533.301	152.103
536.194	115.605
539.087	48.1689
541.979	23.0944
544.872	116.747
547.765	227.056
550.657	111.458
553.55	118.037
556.443	39.9931
559.335	93.8171
562.228	91.7271
565.121	116.405
568.014	44.8096
570.906	224.458
573.799	70.6149
576.692	66.999
579.584	64.2896
582.477	59.5909
585.37	121.727
588.263	62.4443
591.155	21.1198
594.048	68.8055
596.941	55.6405
599.833	139.613
602.726	89.2296
605.619	46.093
608.511	68.9887
611.404	82.2399
614.297	81.6616
617.189	6.49171
620.082	133.33
622.975	44.1582
625.868	128.367
628.76	31.6629
631.653	12.2539
634.546	26.1955
637.438	53.4495
640.331	69.3593
643.224	89.3286
646.116	26.3318
649.009	100.924
651.902	115.849
654.795	62.227
657.687	137.502
660.58	78.6379
663.473	106.369
666.365	48.3597
669.258	59.1959
672.151	48.266
675.043	35.6399
677.936	92.1051
680.829	60.1259
683.721	69.5039
686.614	20.1004
689.507	74.7757
692.4	127.762
695.292	96.3378
698.185	30.698
701.078	126.821
703.97	110.55
706.863	128.594
709.756	0.797028
712.649	119.545
715.541	56.119
718.434	66.3925
721.327	32.5038
724.219	0.221863
727.112	110.496
730.005	130.336
732.897	77.5688
735.79	9.91519
738.683	130.638
741.576	62.6964
744.468	70.3605
747.361	10.1636
750.254	59.5005
753.146	76.0226
756.039	16.2031
758.932	95.4952
761.824	45.5239
764.717	42.3528
767.61	88.9083
770.503	117.055
773.395	123.457
776.288	59.5917
779.181	41.1144
782.073	48.4761
784.966	86.2207
787.859	98.9904
790.751	134.56
793.644	44.8573
796.537	65.9702
799.429	10.0235
802.322	58.8019
805.215	72.8831
808.108	88.5227
811	19.2707
813.893	87.1504
816.786	30.4836
819.678	69.7507
822.571	106.484
825.464	84.4344
828.356	67.1206
831.249	146.558
834.142	46.5319
837.034	67.8621
839.927	117.124
842.82	93.8619
845.713	110.965
848.605	146.408
851.498	6.53542
854.391	34.5353
857.283	69.8255
860.176	55.2963
863.069	51.1981
865.962	61.0448
868.854	89.8932
871.747	182.977
874.64	90.8646
877.532	75.1071
880.425	73.6681
883.318	6.82763
886.21	82.8707
889.103	58.2081
891.996	102.793
894.889	76.6167
897.781	172.334
900.674	40.9652
903.567	90.8152
906.459	58.3958
909.352	15.6569
912.245	90.7581
915.138	7.25581
918.03	81.7243
920.923	77.1877
923.816	74.2919
926.708	57.9514
929.601	0.259796
932.494	22.3756
935.386	67.4627
938.279	88.2443
941.172	94.6782
944.064	111.752
946.957	10.3469
949.85	98.1147
952.743	101.784
955.635	72.5584
958.528	42.1215
961.421	83.5748
964.313	14.8462
967.206	149.25
970.099	74.8564
972.991	110.768
975.884	55.8701
978.777	45.3652
981.67	86.0145
984.562	71.3338
987.455	93.9248
990.348	106.723
993.24	70.496
996.133	77.7974
999.026	78.4125
1001.92	82.6573
1004.81	72.1951
1007.7	161.376
1010.6	23.2869
1013.49	64.6083
1016.38	99.1914
1019.27	79.3641
1022.17	59.8433
1025.06	70.4575
1027.95	21.7561
1030.85	24.7963
1033.74	5.28561
1036.63	44.5912
1039.52	96.6814
1042.42	132.008
1045.31	86.0937
1048.2	67.6127
1051.09	57.13
1053.99	65.9179
1056.88	55.1835
1059.77	11.6251
1062.66	139.073
1065.56	55.343
1068.45	86.9412
1071.34	70.9609
1074.24	76.9138
1077.13	1.04007
1080.02	71.3154
1082.91	109.061
1085.81	56.7107
1088.7	88.6872
1091.59	90.4167
1094.48	10.4459
1097.38	102.759
1100.27	79.9748
1103.16	53.9681
1106.06	31.5257
1108.95	59.9337
1111.84	63.969
1114.73	32.4747
1117.63	32.6619
1120.52	49.1949
1123.41	45.0029
1126.3	20.0724
1129.2	73.0919
1132.09	73.6583
1134.98	35.0624
1137.88	73.4346
1140.77	60.9553
1143.66	68.0523
1146.55	0.915512
1149.45	8.6763
1152.34	14.4233
1155.23	144.083
1158.12	60.4388
1161.02	1.35869
1163.91	88.1038
1166.8	134.896
1169.69	90.5585
1172.59	107.979
1175.48	78.8725
1178.37	89.9932
1181.27	34.9388
1184.16	73.7154
1187.05	89.8108
1189.94	77.6914
1192.84	10.2162
1195.73	69.5515
1198.62	74.3174
1201.52	27.5112
1204.41	25.2124
1207.3	33.5172
1210.19	56.954
1213.09	50.0739
1215.98	183.466
1218.87	43.3119
1221.76	133.07
1224.66	12.4703
1227.55	100.611
1230.44	121.828
1233.33	0.481422
