Measurement: Raman, 785 nm, unoriented, Raman Data Processed
Mineral: Joseite-A
Rruff sample: R060963
Ideal chemistry: Bi_4_TeS_2_
Locality: Tanza mine, Potosi deptmartment, Bolivia
Source: Michael Scott
Description: Hexagonal, metallic gray single crystal
Raman shift (cm-1)	intensity
108.993	0
111.886	9.68936
114.778	9.62528
117.671	60.9432
120.564	112.746
123.457	236.544
126.349	592.704
129.242	1107.27
132.135	1845.33
135.027	2448.2
137.92	2311.72
140.813	1232.05
143.705	1232.13
146.598	1540.57
149.491	2248.12
152.383	2167.22
155.276	1496.74
158.169	1161.95
161.062	1465.88
163.954	1368.77
166.847	972.691
169.74	721.631
172.632	575.113
175.525	442.944
178.418	358.201
181.31	275.938
184.203	257.144
187.096	216.555
189.989	168.517
192.881	133.753
195.774	115.644
198.667	135.13
201.559	115.013
204.452	150.672
207.345	124.369
210.238	94.4729
213.13	43.7994
216.023	75.3912
218.916	70.9211
221.808	94.2585
224.701	112.852
227.594	127.627
230.486	123.39
233.379	84.1429
236.272	63.0943
239.164	25.7194
242.057	2.37488
244.95	9.74362
247.843	27.7071
250.735	5.24615
253.628	18.1714
256.521	5.19592
259.413	3.92107
262.306	1.50438
265.199	3.85368
268.091	0.81279
270.984	17.0456
273.877	21.7396
276.769	10.6119
279.662	29.8644
282.555	10.497
285.448	20.3118
288.34	26.4189
291.233	20.076
294.126	45.3917
297.018	23.9019
299.911	32.5269
302.804	44.4188
305.697	59.1157
308.589	65.7449
311.482	63.3345
314.375	46.0965
317.267	28.5193
320.16	25.3191
323.053	36.1489
325.945	33.0264
328.838	36.5358
331.731	23.7579
334.623	32.9078
337.516	35.8123
340.409	35.9572
343.302	58.3978
346.194	45.0885
349.087	43.3836
351.98	24.4358
354.872	32.8606
357.765	7.04674
360.658	16.941
363.55	13.8938
366.443	17.0097
369.336	36.8911
372.229	36.3696
375.121	26.9167
378.014	34.7674
380.907	26.043
383.799	33.4668
386.692	26.073
389.585	20.6071
392.477	17.1801
395.37	16.9496
398.263	13.8305
401.156	4.85053
404.048	10.9756
406.941	23.7447
409.834	0.936806
412.726	2.07316
415.619	26.0294
418.512	20.3681
421.404	19.764
424.297	21.3645
427.19	5.25265
430.082	23.0533
432.975	10.6987
435.868	5.66096
438.761	2.08506
441.653	6.47244
444.546	10.0832
447.439	23.0683
450.331	12.0136
453.224	12.3922
456.117	10.1885
459.01	18.8206
461.902	22.9043
464.795	4.65649
467.688	11.9124
470.58	41.4108
473.473	2.91325
476.366	12.1375
479.258	20.0959
482.151	7.75873
485.044	27.3683
487.937	8.55881
490.829	15.6057
493.722	22.2198
496.615	26.0072
499.507	32.2901
502.4	14.0439
505.293	7.11069
508.185	17.4381
511.078	14.1965
513.971	12.3615
516.864	8.52198
519.756	16.5305
522.649	20.866
525.542	18.017
528.434	18.1431
531.327	5.49636
534.22	1.16785
537.112	31.6182
540.005	12.0863
542.898	20.7433
545.79	18.0539
548.683	9.0742
551.576	13.3505
554.469	20.9969
557.361	1.15781
560.254	25.4878
563.147	12.7499
566.039	6.83792
568.932	2.27072
571.825	11.0192
574.717	18.4947
577.61	9.75623
580.503	14.2495
583.395	0.004684
586.288	15.5952
589.181	15.2813
592.074	13.3109
594.966	10.7364
597.859	17.487
600.752	30.7804
603.644	19.7444
606.537	21.3102
609.43	21.8414
612.322	23.0823
615.215	2.27881
618.108	29.3353
621.001	8.4051
623.893	21.7985
626.786	9.96452
629.679	20.3618
632.571	25.2004
635.464	15.9951
638.357	8.03349
641.25	17.1212
644.142	12.3378
647.035	9.82845
649.928	12.4576
652.82	24.4732
655.713	19.1095
658.606	14.1655
661.498	18.7166
664.391	28.7332
667.284	7.27949
670.177	15.0282
673.069	10.8474
675.962	28.9476
678.855	0.122704
681.747	26.9508
684.64	7.2522
687.533	16.217
690.425	18.4526
693.318	13.5791
696.211	22.4815
699.104	14.6242
701.996	14.5334
704.889	8.17692
707.782	29.7891
710.674	29.0472
713.567	24.9135
716.46	15.0148
719.352	38.5768
722.245	23.3946
725.138	2.31841
728.03	5.44179
730.923	15.5636
733.816	13.3096
736.709	9.88336
739.601	16.9842
742.494	21.0136
745.387	17.5921
748.279	15.3121
751.172	28.1301
754.065	24.2967
756.957	24.0974
759.85	22.8551
762.743	9.58648
765.635	9.84228
768.528	0.532295
771.421	12.6339
774.314	21.811
777.206	18.8997
780.099	11.0505
782.992	24.6682
785.884	20.254
788.777	23.0174
791.67	27.7534
794.562	7.6823
797.455	21.7487
800.348	8.6314
803.241	7.20885
806.133	6.29065
809.026	26.9457
811.919	9.11882
814.811	16.559
817.704	17.2735
820.597	0.56839
823.49	3.474
826.382	22.6143
829.275	4.91483
832.168	4.92371
835.06	22.3183
837.953	24.1339
840.846	13.9517
843.738	9.66654
846.631	5.35292
849.524	18.647
852.416	12.6321
855.309	15.7822
858.202	18.4602
861.095	12.5223
863.987	14.4619
866.88	5.50297
869.773	10.9656
872.665	22.6184
875.558	21.512
878.451	10.9325
881.343	13.3761
884.236	7.98634
887.129	27.0885
890.021	6.06469
892.914	24.429
895.807	8.68369
898.7	18.1693
901.592	18.7991
904.485	16.3511
907.378	3.8833
910.27	10.102
913.163	15.4712
916.056	36.8213
918.948	4.3009
921.841	13.6569
924.734	2.86032
927.627	10.5396
930.519	7.45348
933.412	12.7377
936.305	19.1565
939.197	16.2146
942.09	8.9184
944.983	9.60799
947.875	4.45956
950.768	11.644
953.661	14.4354
956.554	39.0127
959.446	15.9606
962.339	6.39584
965.232	36.478
968.124	22.7561
971.017	25.4346
973.91	25.4186
976.803	12.8033
979.695	2.92567
982.588	38.3638
985.481	14.6689
988.373	24.6533
991.266	5.38629
994.159	4.8462
997.051	8.51817
999.944	28.5945
1002.84	33.5177
1005.73	12.57
1008.62	8.61475
1011.51	13.8764
1014.41	10.1315
1017.3	14.0925
1020.19	1.11178
1023.09	10.8501
1025.98	6.5286
1028.87	11.8527
1031.76	10.6676
1034.66	10.9626
1037.55	26.7249
1040.44	27.8117
1043.34	28.251
1046.23	33.3038
1049.12	22.8465
1052.01	33.1257
1054.9	15.2574
1057.8	54.258
1060.69	18.9641
1063.58	38.7132
1066.48	30.5731
1069.37	30.4575
1072.26	30.1646
1075.15	20.7872
1078.05	12.1706
1080.94	8.82526
1083.83	13.2747
1086.72	25.9285
1089.62	7.76267
1092.51	5.17111
1095.4	8.26282
1098.3	17.3638
1101.19	4.69711
1104.08	7.5515
1106.97	14.3069
1109.87	12.9643
1112.76	12.2682
1115.65	24.6719
1118.55	18.9993
1121.44	15.0705
1124.33	10.4103
1127.22	19.3969
1130.12	12.5381
1133.01	24.6167
1135.9	23.528
1138.79	2.05685
1141.69	13.0383
1144.58	33.3883
1147.47	15.2913
1150.36	9.00772
1153.26	20.6685
1156.15	23.0158
1159.04	16.0148
1161.93	16.8852
1164.83	27.7738
1167.72	21.3392
1170.61	34.0451
1173.51	30.8331
1176.4	12.3673
1179.29	24.3585
1182.18	7.36192
1185.08	13.5726
1187.97	19.821
1190.86	13.0772
1193.76	25.4831
1196.65	27.2576
1199.54	16.0843
1202.43	3.69747
1205.33	5.18671
1208.22	25.4871
1211.11	15.8179
1214	1.35526
1216.9	21.9475
1219.79	30.2285
1222.68	24.6291
1225.58	24.5198
1228.47	23.9046
1231.36	20.7541
1234.25	28.3923
1237.14	2.19635
1240.04	14.9505
1242.93	14.2539
1245.82	16.5031
1248.72	9.54057
1251.61	7.2451
1254.5	7.5089
