Measurement: Raman, 532 nm, unoriented, Raman Data Processed
Mineral: Joseite-A
Rruff sample: R060963
Ideal chemistry: Bi_4_TeS_2_
Locality: Tanza mine, Potosi deptmartment, Bolivia
Source: Michael Scott
Description: Hexagonal, metallic gray single crystal
Raman shift (cm-1)	intensity
112.845	0
116.22	40.0394
119.595	69.5338
122.969	151.991
126.344	185.651
129.719	197.979
133.094	170.809
136.469	90.5529
139.843	122.368
143.218	72.7238
146.593	80.1728
149.968	51.2129
153.343	44.678
156.718	52.3966
160.092	23.9939
163.467	33.9512
166.842	22.3206
170.217	16.771
173.592	14.7274
176.966	9.90378
180.341	29.9291
183.716	13.4312
187.091	22.9553
190.466	50.2185
193.84	54.029
197.215	70.0018
200.59	83.1301
203.965	88.683
207.34	80.6773
210.714	73.5617
214.089	92.4284
217.464	99.0866
220.839	120.176
224.214	137.952
227.589	168.556
230.963	149.115
234.338	96.3141
237.713	79.5694
241.088	48.5464
244.463	30.4506
247.838	32.1294
251.212	10.497
254.587	9.69873
257.962	15.2367
261.337	11.6902
264.712	11.3673
268.086	6.06133
271.461	17.4038
274.836	6.54613
278.211	4.32445
281.586	2.50778
284.96	12.5238
288.335	8.96654
291.71	9.97575
295.085	1.88072
298.46	14.0336
301.834	9.98305
305.209	19.0403
308.584	23.3104
311.959	18.275
315.334	11.2963
318.709	11.5375
322.083	22.0878
325.458	12.853
328.833	18.7091
332.208	24.1794
335.583	12.5086
338.957	9.32363
342.332	21.1505
345.707	36.7829
349.082	21.0722
352.457	24.4968
355.832	24.7016
359.206	11.119
362.581	5.55823
365.956	13.4443
369.331	14.891
372.706	20.095
376.08	10.0954
379.455	14.4745
382.83	12.4596
386.205	20.0991
389.58	21.3052
392.954	9.92676
396.329	13.8511
399.704	5.50714
403.079	0.811989
406.454	21.8352
409.829	5.68576
413.203	7.25199
416.578	5.46307
419.953	18.5556
423.328	7.98347
426.703	3.29053
430.077	14.497
433.452	13.7532
436.827	27.1489
440.202	10.3259
443.577	16.5582
446.952	14.236
450.326	9.2056
453.701	11.134
457.076	26.1079
460.451	14.9135
463.826	8.94096
467.2	2.33878
470.575	11.1485
473.95	6.17262
477.325	15.9377
480.7	17.708
484.074	0.802925
487.449	16.8712
490.824	27.64
494.199	13.1585
497.574	25.5566
500.949	23.7549
504.323	8.5403
507.698	23.3276
511.073	17.5424
514.448	3.82541
517.823	19.7871
521.197	21.4082
524.572	10.3077
527.947	7.26965
531.322	19.6336
534.697	0.545937
538.072	13.7758
541.446	14.0191
544.821	6.04228
548.196	15.4797
551.571	3.58971
554.946	2.08796
558.32	16.3305
561.695	6.82812
565.07	18.4557
568.445	13.8377
571.82	16.0835
575.194	2.41366
578.569	14.5518
581.944	4.19938
585.319	9.87376
588.694	12.5268
592.068	12.932
595.443	15.9584
598.818	15.7941
602.193	15.5183
605.568	8.6231
608.942	11.2601
612.317	19.6132
615.692	5.432
619.067	3.82702
622.442	4.42547
625.817	5.33491
629.191	28.0635
632.566	16.0508
635.941	13.8302
639.316	14.2147
642.691	11.3409
646.066	14.6425
649.44	17.1838
652.815	14.6362
656.19	1.63369
659.565	15.4982
662.94	6.35615
666.314	12.0581
669.689	26.2924
673.064	17.416
676.439	19.8167
679.814	13.2835
683.188	21.9966
686.563	8.82753
689.938	12.4063
693.313	14.8321
696.688	9.54983
700.062	11.4501
703.437	17.9507
706.812	14.1547
710.187	17.9116
713.562	3.56549
716.937	14.6277
720.311	26.5951
723.686	12.647
727.061	34.989
730.436	16.6981
733.811	18.2748
737.185	34.378
740.56	5.18814
743.935	10.3683
747.31	7.84341
750.685	13.4737
754.059	11.0067
757.434	16.0968
760.809	10.8205
764.184	15.7701
767.559	1.30989
770.934	13.3353
774.308	7.21569
777.683	4.59414
781.058	18.5692
784.433	12.8698
787.808	19.5571
791.183	24.8644
794.557	23.481
797.932	19.1293
801.307	20.6742
804.682	16.6566
808.057	25.4542
811.431	27.9868
814.806	6.83731
818.181	13.7747
821.556	14.256
824.931	4.268
828.305	10.0487
831.68	3.97225
835.055	17.0884
838.43	3.3676
841.805	16.1374
845.179	7.78416
848.554	18.5811
851.929	11.1956
855.304	21.3311
858.679	11.3811
862.053	17.0479
865.428	3.31769
868.803	2.78082
872.178	14.4717
875.553	8.82242
878.928	0.274773
882.302	14.4702
885.677	34.4862
889.052	6.52579
892.427	15.2289
895.802	13.9866
899.177	29.7752
902.551	1.0578
905.926	21.6141
909.301	9.20049
912.676	20.6563
916.051	8.72666
919.425	3.12993
922.8	5.15751
926.175	0.693748
929.55	22.6184
932.925	3.86478
936.299	26.5363
939.674	16.5841
943.049	19.6736
946.424	2.94432
949.799	41.06
953.173	19.1882
956.548	7.78097
959.923	16.0654
963.298	14.473
966.673	19.7899
970.048	5.81608
973.422	15.0341
976.797	8.56159
980.172	21.1972
983.547	9.15952
986.922	16.3777
990.296	19.605
993.671	10.8783
997.046	7.23849
1000.42	9.90664
1003.8	22.9169
1007.17	20.2771
1010.54	19.3935
1013.92	2.13871
1017.29	20.2765
1020.67	20.7456
1024.05	21.3307
1027.42	14.472
1030.79	5.40576
1034.17	17.9844
1037.54	6.78132
1040.92	28.3056
1044.29	25.3703
1047.67	23.5052
1051.04	12.6279
1054.42	22.6429
1057.79	32.681
1061.17	13.8557
1064.54	36.946
1067.92	14.7023
1071.29	10.8613
1074.67	18.4454
1078.04	17.5365
1081.42	0.351555
1084.79	18.9005
1088.17	25.2798
1091.54	18.6447
1094.92	13.849
1098.29	15.8229
1101.66	14.3503
1105.04	4.13032
1108.41	11.0484
1111.79	9.3797
1115.16	4.37092
1118.54	5.23293
1121.91	16.1074
1125.29	6.06325
1128.66	19.9932
1132.04	0.221336
1135.41	2.4193
1138.79	15.9399
1142.16	23.2419
1145.54	6.99783
1148.91	16.9038
1152.29	15.1886
1155.66	17.1794
1159.04	12.0376
1162.41	17.3658
1165.79	27.5616
1169.16	14.8278
1172.54	22.0415
1175.91	14.4061
1179.29	19.8916
1182.66	6.47487
1186.04	15.0347
1189.41	22.3666
1192.79	0.486855
1196.16	26.1906
1199.54	11.5774
1202.91	16.0867
1206.29	2.25441
1209.66	17.2054
1213.03	16.3137
1216.41	12.7431
1219.78	23.6956
1223.16	15.508
1226.53	2.1114
1229.91	19.3805
1233.28	27.4917
1236.66	18.7245
1240.03	16.5474
1243.41	21.5248
1246.78	17.2724
1250.16	20.3539
1253.53	18.8214
1256.91	11.7834
1260.28	20.1765
1263.66	17.7149
1267.03	17.7457
1270.41	7.22977
1273.78	0.015747
1277.16	14.8009
1280.53	15.9696
1283.9	23.2305
1287.28	18.9835
1290.65	0.001183
