Measurement: Raman, 780 nm, unoriented, Raman Data RAW
Mineral: Kaersutite
Rruff sample: R141092
Ideal chemistry: NaCa_2_(Mg_3_AlTi^4+^)(Si_6_Al_2_)O_22_O_2_
Locality: Rothenberg, Bell, Eifel, Germany
Source: Ch. and H. Sch√§fer
Description: Rusty brown blades embedded in matrix
Raman shift (cm-1)	intensity
90.5954	21.1475
93.9702	21.4853
97.345	21.4297
100.72	21.5307
104.095	21.3329
107.469	21.0751
110.844	20.4659
114.219	20.2835
117.594	20.0778
120.969	20.2316
124.344	19.9767
127.718	19.8724
131.093	19.5478
134.468	19.6002
137.843	19.8479
141.218	19.6881
144.593	19.4056
147.967	19.4675
151.342	19.4774
154.717	19.1453
158.092	19.5217
161.467	19.4059
164.841	19.3406
168.216	19.1967
171.591	19.2459
174.966	19.1158
178.341	19.1705
181.715	19.0412
185.09	19.1915
188.465	19.0504
191.84	19.0221
195.215	19.3039
198.59	19.4624
201.964	19.1012
205.339	19.3649
208.714	18.7183
212.089	19.3799
215.464	19.2171
218.839	19.4918
222.213	19.0517
225.588	19.4456
228.963	19.3193
232.338	19.5145
235.713	19.4926
239.087	19.3742
242.462	19.5671
245.837	19.6132
249.212	19.7158
252.587	19.6536
255.962	19.9027
259.336	19.9324
262.711	19.5822
266.086	19.8841
269.461	19.9699
272.836	20.493
276.21	20.1299
279.585	20.8353
282.96	20.5243
286.335	20.9246
289.71	21.0106
293.084	21.2343
296.459	21.671
299.834	21.7969
303.209	21.5731
306.584	22.0072
309.959	22.1084
313.333	22.5202
316.708	22.9816
320.083	23.1966
323.458	22.8762
326.833	23.3224
330.207	23.9709
333.582	23.7647
336.957	24.0678
340.332	24.1644
343.707	24.7583
347.082	24.6666
350.456	24.7297
353.831	24.8902
357.206	24.4144
360.581	24.132
363.956	24.0803
367.33	23.9655
370.705	24.0566
374.08	24.0586
377.455	23.5487
380.83	23.3148
384.205	23.7096
387.579	23.4587
390.954	23.1937
394.329	23.1808
397.704	23.0544
401.079	23.32
404.454	23.8373
407.828	23.3313
411.203	23.027
414.578	23.4311
417.953	22.9698
421.327	22.9568
424.702	23.2057
428.077	22.9483
431.452	22.9849
434.827	22.7262
438.202	22.7001
441.577	22.707
444.951	22.4203
448.326	22.6283
451.701	22.7046
455.076	22.3002
458.451	22.1003
461.825	22.1835
465.2	22.2506
468.575	22.73
471.95	21.7667
475.325	22.1026
478.7	22.061
482.074	22.019
485.449	22.2827
488.824	21.6849
492.199	21.6488
495.574	21.2753
498.948	21.3349
502.323	22.1283
505.698	21.5715
509.073	21.616
512.448	21.5102
515.822	21.4921
519.197	21.4849
522.572	21.35
525.947	21.1627
529.322	21.2993
532.697	21.264
536.071	21.4338
539.446	21.1128
542.821	21.1141
546.196	21.14
549.571	21.0387
552.945	21.0664
556.32	20.8179
559.695	21.2111
563.07	20.5554
566.445	21.1093
569.819	20.6437
573.194	20.3721
576.569	20.6159
579.944	20.5134
583.319	20.2144
586.694	20.491
590.068	20.6486
593.443	20.62
596.818	20.2817
600.193	20.7599
603.568	20.4267
606.943	20.8449
610.317	20.2123
613.692	20.3277
617.067	20.3735
620.442	20.109
623.817	20.405
627.192	20.3877
630.566	20.0897
633.941	20.1475
637.316	20.1945
640.691	20.1399
644.066	20.2336
647.44	19.8639
650.815	19.9917
654.19	20.1756
657.565	20.3045
660.94	20.2516
664.314	19.9645
667.689	19.9156
671.064	19.8351
674.439	19.8916
677.814	19.8599
681.188	19.2934
684.563	19.7823
687.938	19.7601
691.313	19.4823
694.688	19.7913
698.063	19.3123
701.437	19.5736
704.812	19.4318
708.187	19.3367
711.562	19.7232
714.937	19.2508
718.312	19.3722
721.686	19.2505
725.061	18.8385
728.436	19.3176
731.811	19.3723
735.186	19.3381
738.56	19.4505
741.935	19.2665
745.31	19.3828
748.685	19.1314
752.06	19.0597
755.434	19.2805
758.809	19.0085
762.184	19.1906
765.559	19.1295
768.934	19.0243
772.309	19.215
775.683	19.0645
779.058	19.073
782.433	18.859
785.808	19.0658
789.183	18.8857
792.558	18.8492
795.932	18.6704
799.307	18.5203
802.682	18.7135
806.057	18.6162
809.432	18.6081
812.807	18.9045
816.181	18.5384
819.556	18.6479
822.931	18.6138
826.306	18.3157
829.681	18.2485
833.055	18.3333
836.43	18.1495
839.805	18.0708
843.18	18.2883
846.555	18.3266
849.929	18.154
853.304	18.1867
856.679	18.0284
860.054	17.9469
863.429	17.9684
866.803	18.074
870.178	17.8756
873.553	18.1267
876.928	17.8665
880.303	17.7809
883.678	17.8056
887.052	17.859
890.427	17.9197
893.802	17.8643
897.177	17.6976
900.552	17.9323
903.927	17.8935
907.301	18.0871
910.676	17.8769
914.051	17.5834
917.426	17.6948
920.801	17.7537
924.175	17.9164
927.55	17.7438
930.925	17.7181
934.3	17.7394
937.675	17.8227
941.049	17.8694
944.424	17.9428
947.799	17.7555
951.174	17.6833
954.549	18.0703
957.924	17.7585
961.298	17.8517
964.673	17.6902
968.048	17.6859
971.423	17.7964
974.798	17.8066
978.173	17.9134
981.547	18.0518
984.922	18.0053
988.297	17.9242
991.672	17.8926
995.047	17.9297
998.421	17.7429
1001.8	17.7922
1005.17	17.8947
1008.55	17.7458
1011.92	18.0375
1015.3	18.0972
1018.67	17.8868
1022.04	18.0852
1025.42	17.938
1028.8	17.9782
1032.17	18.0376
1035.54	17.9608
1038.92	17.9316
1042.29	17.8778
1045.67	17.8857
1049.04	17.8786
1052.42	17.9585
1055.79	18.1804
1059.17	18.1851
1062.54	17.9386
1065.92	18.0942
1069.29	17.9313
1072.67	18.28
1076.04	18.2699
1079.42	18.4237
1082.79	18.1617
1086.17	18.4472
1089.54	18.413
1092.92	18.3971
1096.29	18.5499
1099.67	18.4592
1103.04	18.5257
1106.42	18.6867
1109.79	18.7334
1113.16	18.6983
1116.54	18.5463
1119.91	18.8538
1123.29	18.752
1126.66	18.9727
1130.04	18.817
1133.41	18.9161
1136.79	18.9158
1140.16	19.1241
1143.54	19.4424
1146.91	19.2417
1150.29	19.7922
1153.66	19.6987
1157.04	19.7268
1160.41	19.636
1163.79	19.9488
1167.16	19.7699
1170.54	19.9865
1173.91	20.37
1177.29	20.5946
1180.66	20.5246
1184.04	20.6251
1187.41	21.0473
1190.79	20.7442
1194.16	21.4765
1197.54	21.639
1200.91	21.92
1204.29	22.4352
1207.66	22.6441
1211.04	22.736
1214.41	23.6172
1217.79	23.4501
1221.16	23.7807
1224.53	24.4169
1227.91	24.2916
1231.28	25.3837
1234.66	26.0662
1238.03	26.4052
1241.41	27.1485
1244.78	28.1348
1248.16	28.4365
1251.53	30.0737
1254.91	30.9277
1258.28	31.7427
1261.66	32.9168
1265.03	33.9083
1268.41	35.2881
1271.78	35.5991
