Measurement: Raman, 780 nm, unoriented, Raman Data Processed
Mineral: Kainosite-(Y)
Rruff sample: R070759
Ideal chemistry: Ca_2_Y_2_(SiO_3_)_4_(CO_3_)H_2_O
Locality: Bicroft mine, Cardiff Township, Haliburton Co., Ontario, Canada
Source: Michael Scott
Description: Light brown prismatic crystals associated with quartz and green fluorite
Raman shift (cm-1)	intensity
104.353	0
107.245	28.7275
110.138	25.7754
113.031	32.125
115.923	86.4004
118.816	200.265
121.709	300.864
124.602	453.494
127.494	533.753
130.387	484.728
133.28	441.823
136.172	461.259
139.065	528.981
141.958	474.486
144.85	408.506
147.743	613.596
150.636	680.179
153.529	812.35
156.421	1112.71
159.314	1435.32
162.207	1801.64
165.099	2006.16
167.992	2080.05
170.885	2158.07
173.777	2177.06
176.67	2186.64
179.563	2013.31
182.456	1974.25
185.348	2112.73
188.241	2201.27
191.134	2444.76
194.026	2533.89
196.919	2671.94
199.812	2669.25
202.704	2644.57
205.597	2581.86
208.49	2315.02
211.382	2189.23
214.275	2045.55
217.168	1875.13
220.061	1770.93
222.953	1594.63
225.846	1530.69
228.739	1404.41
231.631	1329.32
234.524	1263.99
237.417	1182.74
240.31	1010.17
243.202	875.027
246.095	646.562
248.988	448.645
251.88	295.577
254.773	205.697
257.666	68.3242
260.558	150.828
263.451	106.071
266.344	115.588
269.236	10.75
272.129	112.407
275.022	258.519
277.915	371.916
280.807	594.251
283.7	861.506
286.593	1097.86
289.485	1331.9
292.378	1603.62
295.271	1696.87
298.163	1797
301.056	1969.88
303.949	2124.05
306.842	2373.52
309.734	2706.79
312.627	2972.79
315.52	3021.39
318.412	2885.88
321.305	2759.16
324.198	2550.7
327.091	2237.59
329.983	2037.78
332.876	1599.2
335.769	1147.44
338.661	753.822
341.554	464.459
344.447	176.018
347.339	47.0654
350.232	41.3477
353.125	107.89
356.017	21.563
358.91	59.7129
361.803	189.712
364.696	377.788
367.588	512.219
370.481	775.26
373.374	998.101
376.266	1355.24
379.159	1792.53
382.052	2247.58
384.945	2894.21
387.837	3619.87
390.73	4433.45
393.623	5415.21
396.515	6273.3
399.408	7058.87
402.301	7512.42
405.193	7372.06
408.086	6938.64
410.979	6110.62
413.872	5179.49
416.764	4274.46
419.657	3374.5
422.55	2741.2
425.442	2156.2
428.335	1826.56
431.228	1353.46
434.12	1093.84
437.013	880.876
439.906	693.181
442.798	635.088
445.691	491.975
448.584	321.324
451.477	267.325
454.369	118.242
457.262	78.5342
460.155	10.8921
463.047	24.3657
465.94	63.9946
468.833	29.7554
471.726	73.5147
474.618	27.0723
477.511	84.3882
480.404	37.3355
483.296	258.856
486.189	443.594
489.082	409.612
491.974	224.531
494.867	181.818
497.76	287.088
500.652	361.546
503.545	504.239
506.438	835.139
509.33	988.734
512.223	1385.36
515.116	1661.33
518.009	1715.26
520.901	1914.66
523.794	1999.72
526.687	2150.41
529.58	2200.25
532.472	2164.09
535.365	2167.55
538.258	2060.35
541.15	1997.25
544.043	1686.73
546.936	1431.79
549.828	1160.44
552.721	867.517
555.614	699.031
558.506	499.875
561.399	439.697
564.292	227.56
567.185	117.864
570.077	61.2935
572.97	3.5835
575.863	34.0112
578.755	36.0078
581.648	17.207
584.541	35.1782
587.433	74.5693
590.326	153.373
593.219	257.119
596.111	443.04
599.004	579.718
601.897	726.175
604.79	909.424
607.682	1158.02
610.575	1469.77
613.468	1804.41
616.36	2171.47
619.253	2252.49
622.146	1943.79
625.038	1610.68
627.931	1332.59
630.824	1147.98
633.717	959.076
636.609	893.095
639.502	792.874
642.395	674.152
645.287	551.935
648.18	498.518
651.073	430.703
653.966	314.055
656.858	313.878
659.751	260.954
662.644	184.605
665.536	167.969
668.429	139.417
671.322	91.6985
674.214	78.0957
677.107	78.1887
680	79.3689
682.893	94.9595
685.785	34.4434
688.678	28.093
691.571	7.7085
694.463	46.3066
697.356	18.1636
700.249	42.4739
703.141	33.2656
706.034	122.4
708.927	81.4534
711.819	27.1472
714.712	35.4399
717.605	42.6658
720.498	53.3782
723.39	30.1811
726.283	10.6016
729.176	13.7456
732.068	67.4502
734.961	76.5674
737.854	98.6287
740.746	89.8369
743.639	94.3581
746.532	127.846
749.425	144.077
752.317	130.145
755.21	102.89
758.103	148.308
760.995	234.797
763.888	327.322
766.781	552.76
769.673	612.753
772.566	442.255
775.459	332.433
778.352	300.585
781.244	311.425
784.137	307.853
787.03	333.776
789.922	280.85
792.815	307.464
795.708	274.387
798.601	300.579
801.493	329.707
804.386	330.55
807.279	390.167
810.171	375.474
813.064	379.048
815.957	351.314
818.849	325.364
821.742	253.595
824.635	178.552
827.528	97.9701
830.42	68.5746
833.313	16.6062
836.206	22.5886
839.098	18.8091
841.991	18.1737
844.884	4.0293
847.776	11.5735
850.669	26.6148
853.562	50.3003
856.455	109.44
859.347	154.351
862.24	197.988
865.133	281.774
868.025	351.959
870.918	429.097
873.811	534.406
876.703	643.917
879.596	788.435
882.489	924.033
885.381	989.716
888.274	1148.7
891.167	1250.67
894.06	1360.05
896.952	1533.79
899.845	1616.71
902.738	1692.81
905.63	1700.05
908.523	1596
911.416	1460.49
914.308	1314.06
917.201	1105.54
920.094	942.649
922.987	772.104
925.879	594.161
928.772	526.018
931.665	446.092
934.557	327.107
937.45	198.734
940.343	129.526
943.236	69.6565
946.128	5.86279
949.021	16.0005
951.914	17.6706
954.806	0.170044
957.699	11.3712
960.592	14.9445
963.484	25.9297
966.377	15.9205
969.27	43.7639
972.163	57.0076
975.055	54.0983
977.948	104.345
980.841	114.742
983.733	174.869
986.626	225.487
989.519	272.19
992.411	252.04
995.304	214.636
998.197	203.25
1001.09	241.274
1003.98	286.595
1006.88	283.928
1009.77	275.487
1012.66	236.014
1015.55	187.311
1018.45	198.632
1021.34	221.509
1024.23	278.715
1027.12	390.42
1030.02	572.785
1032.91	771.36
1035.8	938.548
1038.69	804.874
1041.59	533.101
1044.48	320.987
1047.37	153.985
1050.27	122.716
1053.16	17.33
1056.05	21.1703
1058.94	12.8366
1061.84	5.21716
1064.73	19.0959
1067.62	13.2964
1070.51	7.20557
1073.41	20.5934
1076.3	8.80054
1079.19	50.0095
1082.09	80.5375
1084.98	96.5138
1087.87	150.738
1090.76	143.428
1093.66	185.08
1096.55	222.171
1099.44	232.489
1102.33	267.881
1105.23	281.933
1108.12	379.458
1111.01	532.865
1113.9	989.046
1116.8	1720.44
1119.69	2137.55
1122.58	1378.94
1125.48	607.943
1128.37	263.023
1131.26	69.6714
1134.15	62.7566
1137.05	13.2683
1139.94	14.0666
1142.83	52.762
1145.72	13.4995
1148.62	40.6167
