Measurement: Raman, 532 nm, unoriented, Raman Data Processed
Mineral: Kanemite
Rruff sample: R070544
Ideal chemistry: HNaSi_2_O_5_3H_2_O
Locality: Alluaiv Mountain, Lovozero Massif, Kola Peninsula, Murmanskaya Oblast'; Northern Region, Russia
Source: Michael Scott
Description: Small aggregate of white acicular crystals
Raman shift (cm-1)	intensity
175.089	0
177.981	7.28906
180.874	13.6572
183.767	34.7158
186.659	47.5996
189.552	95.4487
192.445	103.748
195.338	109.879
198.23	134.493
201.123	61.9697
204.016	119.557
206.908	147.95
209.801	111.754
212.694	131.023
215.586	50.689
218.479	78.0278
221.372	76.3623
224.264	47.8355
227.157	17.227
230.05	124.007
232.943	109.272
235.835	12.2754
238.728	16.5122
241.621	46.7563
244.513	43.6748
247.406	59.3623
250.299	6.31396
253.191	38.1753
256.084	0.412598
258.977	19.5967
261.87	11.0444
264.762	93.7036
267.655	89.5688
270.548	96.3193
273.44	78.3979
276.333	95.9136
279.226	53.981
282.118	12.0278
285.011	9.95801
287.904	29.9238
290.796	75.249
293.689	16.6626
296.582	29.272
299.475	57.7363
302.367	14.5566
305.26	141.92
308.153	48.9697
311.045	9.80225
313.938	55.3335
316.831	93.2036
319.724	146.047
322.616	41.5713
325.509	85.3916
328.402	154.42
331.294	124.023
334.187	165.651
337.08	149.173
339.972	73.6992
342.865	90.8242
345.758	62.5664
348.651	124.357
351.543	42.4736
354.436	80.3076
357.329	48.6992
360.221	84.3774
363.114	105.841
366.007	73.1406
368.899	11.7241
371.792	25.8032
374.685	42.5239
377.577	45.1284
380.47	31.5107
383.363	77.8755
386.256	32.4839
389.148	48.6089
392.041	92.7095
394.934	54.7114
397.826	61.7144
400.719	45.1714
403.612	50.5107
406.505	69.0342
409.397	50.96
412.29	27.1851
415.183	87.4394
418.075	13.9585
420.968	69.3765
423.861	27.2588
426.753	137.754
429.646	53.4277
432.539	92.6103
435.432	74.3184
438.324	79.6006
441.217	19.4609
444.11	67.9346
447.002	153.705
449.895	25.2236
452.788	87.8311
455.68	99.9258
458.573	41.1865
461.466	2.56836
464.358	18.1953
467.251	121.194
470.144	150.324
473.037	114.557
475.929	125.319
478.822	107.634
481.715	109.2
484.607	137.288
487.5	174.579
490.393	104.568
493.286	94.9346
496.178	33.4912
499.071	89.876
501.964	146.233
504.856	49.4277
507.749	67.5996
510.642	54.2832
513.534	64.0586
516.427	42.7754
519.32	38.5127
522.212	37.5391
525.105	68.3115
527.998	44.3203
530.891	141.023
533.783	106.931
536.676	63.833
539.569	80.6768
542.461	115.39
545.354	38.9443
548.247	69.1113
551.139	78.4453
554.032	163.983
556.925	131.476
559.818	161.686
562.71	144.269
565.603	92.8857
568.496	87.0947
571.388	0.62207
574.281	97.8154
577.174	35.1455
580.067	99.6191
582.959	93.542
585.852	84.1377
588.745	88.6475
591.637	119.455
594.53	41.165
597.423	205.416
600.315	64.6064
603.208	70.1133
606.101	55.2217
608.994	44.7685
611.886	82.4014
614.779	73.2598
617.672	81.3789
620.564	18.8047
623.457	97.2705
626.35	29.709
629.242	89.6289
632.135	84.3154
635.028	109.002
637.92	49.4766
640.813	61.8018
643.706	67.5225
646.599	82.9404
649.491	83.2666
652.384	47.9062
655.277	133.915
658.169	76.3789
661.062	88.1172
663.955	25.7109
666.847	1.47461
669.74	68.6006
672.633	70.8144
675.525	18.2549
678.418	13.5938
681.311	107.608
684.204	151.567
687.096	108.597
689.989	62.3926
692.882	22.6699
695.774	36.2129
698.667	17.7021
701.56	70.2881
704.452	101.667
707.345	33.8945
710.238	128.019
713.131	45.2002
716.023	168.411
718.916	185.694
721.809	136.324
724.701	97.0244
727.594	196.398
730.487	87.4307
733.38	5.16406
736.272	21.79
739.165	8.34277
742.058	41.2793
744.95	76.8096
747.843	126.095
750.736	112.807
753.628	3.18066
756.521	16.6494
759.414	73.832
762.307	50.6328
765.199	75.9277
768.092	56.1338
770.985	87.2725
773.877	124.997
776.77	98.251
779.663	93.9131
782.555	29.8311
785.448	260.407
788.341	77.168
791.234	29.2529
794.126	68.7119
797.019	179.274
799.912	169.106
802.804	53.21
805.697	131.293
808.59	112.631
811.482	163.697
814.375	110.469
817.268	97.0644
820.16	39.9062
823.053	72.5391
825.946	114.678
828.839	1.34375
831.731	102.342
834.624	69.8516
837.517	11.1172
840.409	68.5176
843.302	126.281
846.195	160.19
849.087	220.625
851.98	179.207
854.873	204.469
857.766	247.769
860.658	241.051
863.551	171.475
866.444	185.818
869.336	83.0098
872.229	0.986328
875.122	98.3066
878.014	232.711
880.907	186.92
883.8	161.227
886.693	134.025
889.585	131.234
892.478	33.2578
895.371	10.0801
898.263	46.7617
901.156	18.1875
904.049	38.8535
906.942	160.981
909.834	52.8574
912.727	51.4258
915.62	19.3418
918.512	37.2715
921.405	89.4688
924.298	89.0996
927.19	2.4668
930.083	79.1055
932.976	75.1269
935.869	60.9629
938.761	175.793
941.654	148.779
944.547	113.41
947.439	127.627
950.332	142.232
953.225	91.4238
956.117	38.0449
959.01	96.4141
961.903	24.9375
964.795	41.8848
967.688	144.531
970.581	170.228
973.474	142.75
976.366	4.93164
979.259	112.863
982.152	146.225
985.044	30.8418
987.937	74.4199
990.83	21.9883
993.722	38.4336
996.615	8.31836
999.508	84.0977
1002.4	132.002
1005.29	153.596
1008.19	24.8809
1011.08	13.0332
1013.97	47.9531
1016.86	116.461
1019.76	28.2422
1022.65	93.8945
1025.54	58.4863
1028.43	119.938
1031.33	97.707
1034.22	119.914
1037.11	71.9394
1040.01	98.3711
1042.9	80.6269
1045.79	79.5723
1048.68	151.225
1051.58	345.973
1054.47	334.508
1057.36	576.963
1060.26	695.002
1063.15	793.951
1066.04	659.75
1068.93	480.287
1071.83	601.689
1074.72	652.309
1077.61	662.789
1080.5	631.865
1083.4	635.629
1086.29	525.324
1089.18	490.674
1092.07	390.078
1094.97	275.398
1097.86	259.941
1100.75	171.096
1103.64	69.5488
1106.54	150.361
1109.43	177.664
1112.32	137.65
1115.22	211.816
1118.11	186.707
1121	305.678
1123.89	405.326
1126.79	502.25
1129.68	592.18
1132.57	400.603
1135.46	199.596
1138.36	221.25
1141.25	45.1426
1144.14	80.6582
1147.04	40.8594
1149.93	65.5684
1152.82	4.44727
1155.71	58.3184
1158.61	79.8379
1161.5	149.725
1164.39	101.883
1167.28	66.5879
1170.18	99.0117
1173.07	53.7578
1175.96	38.5234
1178.86	82.9004
1181.75	21.7305
1184.64	124.836
1187.53	176.967
1190.43	185.809
1193.32	60.3613
1196.21	90.9609
1199.1	5.66992
1202	49.4258
1204.89	43.9824
1207.78	75.4512
1210.67	177.477
1213.57	62.1836
1216.46	36.5957
1219.35	26.5293
1222.25	96.5449
1225.14	39.7051
1228.03	83.1816
1230.92	46.5195
1233.82	26.3145
1236.71	133.408
1239.6	66.8223
1242.49	72.2754
1245.39	16.1973
1248.28	154.531
1251.17	92.6191
1254.07	103.928
1256.96	16.9199
