Measurement: Raman, 785 nm, unoriented, Raman Data Processed
Mineral: Kanemite
Rruff sample: R070544
Ideal chemistry: HNaSi_2_O_5_3H_2_O
Locality: Alluaiv Mountain, Lovozero Massif, Kola Peninsula, Murmanskaya Oblast'; Northern Region, Russia
Source: Michael Scott
Description: Small aggregate of white acicular crystals
Raman shift (cm-1)	intensity
182.629	0
185.522	45.8074
188.414	41.1543
191.307	16.3323
194.2	54.249
197.092	41.5259
199.985	23.5122
202.878	35.7681
205.77	32.3501
208.663	14.2097
211.556	18.5293
214.448	5.16113
217.341	6.96436
220.234	29.8215
223.127	15.2961
226.019	43.5903
228.912	51.6318
231.805	27.9768
234.697	18.5938
237.59	54.9016
240.483	28.5095
243.375	11.4902
246.268	22.1189
249.161	0.842529
252.054	33.4504
254.946	47.3098
257.839	33.293
260.732	7.58862
263.624	13.2998
266.517	10.5294
269.41	27.4819
272.302	43.761
275.195	52.0139
278.088	26.2622
280.981	56.906
283.873	29.3971
286.766	9.02612
289.659	21.6691
292.551	53.2427
295.444	10.5688
298.337	67.9647
301.229	21.3429
304.122	24.8939
307.015	28.7305
309.908	30.9814
312.8	0.578613
315.693	8.22644
318.586	50.7125
321.478	12.7616
324.371	42.3992
327.264	34.3927
330.156	54.6028
333.049	46.4799
335.942	53.2064
338.834	48.7654
341.727	35.0324
344.62	82.6702
347.513	33.0621
350.405	51.0772
353.298	55.9357
356.191	53.1826
359.083	25.5175
361.976	56.8645
364.869	0.262085
367.762	21.7887
370.654	45.4337
373.547	30.585
376.44	23.0314
379.332	29.807
382.225	30.1932
385.118	12.745
388.01	29.9237
390.903	59.8988
393.796	51.8766
396.688	16.2567
399.581	45.5746
402.474	1.62122
405.367	19.287
408.259	23.8179
411.152	33.563
414.045	21.9097
416.937	24.7841
419.83	41.0925
422.723	59.5953
425.615	15.2269
428.508	37.2745
431.401	46.0542
434.293	35.4999
437.186	9.92578
440.079	35.6169
442.972	44.6599
445.864	31.1892
448.757	47.8988
451.65	32.5309
454.542	32.8186
457.435	57.736
460.328	54.9414
463.221	53.0526
466.113	59.1704
469.006	62.021
471.899	104.795
474.791	59.7065
477.684	64.1494
480.577	82.5599
483.469	50.3265
486.362	74.015
489.255	55.8422
492.147	71.051
495.04	57.1835
497.933	36.7756
500.826	19.8246
503.718	38.0359
506.611	27.7157
509.504	35.0096
512.396	20.8945
515.289	5.4751
518.182	1.03796
521.074	5.5907
523.967	5.50574
526.86	30.5414
529.753	12.1412
532.645	14.0659
535.538	21.3765
538.431	17.6307
541.323	36.7847
544.216	20.3019
547.109	6.94287
550.001	11.3013
552.894	44.416
555.787	22.7172
558.68	30.5675
561.572	27.6908
564.465	1.14197
567.358	59.7071
570.25	37.325
573.143	42.5968
576.036	49.5751
578.928	60.4323
581.821	62.2437
584.714	47.7024
587.607	42.9835
590.499	51.6937
593.392	9.69019
596.285	5.63696
599.177	35.2563
602.07	51.3571
604.963	21.2792
607.856	12.629
610.748	29.4183
613.641	4.02405
616.534	19.8345
619.426	25.2416
622.319	2.91614
625.212	26.86
628.104	13.4761
630.997	7.05566
633.89	9.52966
636.782	48.4015
639.675	44.7927
642.568	21.6602
645.461	22.0159
648.353	16.4961
651.246	14.9288
654.139	15.8107
657.031	7.03674
659.924	14.118
662.817	5.82715
665.709	3.40808
668.602	5.39172
671.495	23.4387
674.388	39.495
677.28	16.1129
680.173	16.1058
683.066	21.9668
685.958	6.87891
688.851	5.02148
691.744	19.8833
694.636	29.0498
697.529	8.41724
700.422	6.81165
703.314	15.0486
706.207	22.3347
709.1	20.2264
711.993	2.98328
714.885	25.0732
717.778	40.4989
720.671	10.5726
723.563	40.6697
726.456	36.2489
729.349	27.3821
732.241	1.83435
735.134	14.6071
738.027	30.6998
740.92	31.6875
743.812	4.28394
746.705	20.7097
749.598	14.58
752.49	33.8272
755.383	14.4658
758.276	26.6255
761.168	18.343
764.061	42.5702
766.954	15.3267
769.847	11.5572
772.739	32.1428
775.632	7.48413
778.525	15.4606
781.417	28.2653
784.31	37.3748
787.203	43.0637
790.096	36.641
792.988	26.3812
795.881	31.2565
798.774	41.3888
801.666	16.5897
804.559	28.1659
807.452	6.21118
810.344	37.6786
813.237	27.2459
816.13	23.1976
819.023	15.3857
821.915	21.6079
824.808	10.5671
827.701	13.4451
830.593	17.571
833.486	39.0713
836.379	48.9318
839.271	36.5432
842.164	6.87451
845.057	6.68359
847.949	33.8201
850.842	33.4133
853.735	31.3063
856.628	6.30823
859.52	48.1108
862.413	13.114
865.306	31.1804
868.198	28.478
871.091	24.2882
873.984	41.8905
876.876	36.1704
879.769	11.1848
882.662	34.6027
885.554	43.7461
888.447	21.9737
891.34	7.87549
894.233	33.4875
897.125	27.5253
900.018	14.0648
902.911	24.6338
905.803	22.8852
908.696	14.8602
911.589	9.94873
914.481	32.8595
917.374	4.1593
920.267	26.6842
923.16	20.774
926.052	19.0469
928.945	10.7842
931.838	6.10974
934.73	3.82861
937.623	20.6352
940.516	18.3014
943.408	26.7775
946.301	27.7013
949.194	30.1052
952.087	20.6287
954.979	11.0602
957.872	49.5824
960.765	40.6029
963.657	2.92029
966.55	35.0143
969.443	22.3645
972.335	14.6085
975.228	5.28845
978.121	5.76038
981.014	1.69324
983.906	5.04822
986.799	13.5546
989.692	39.5018
992.584	27.1298
995.477	5.99817
998.37	35.2819
1001.26	16.3087
1004.15	17.0032
1007.05	28.9886
1009.94	8.14441
1012.83	35.3451
1015.73	28.2155
1018.62	2.79773
1021.51	27.8406
1024.4	21.9106
1027.3	12.4291
1030.19	6.12878
1033.08	25.921
1035.97	14.7634
1038.87	13.5044
1041.76	0.262207
1044.65	38.2163
1047.55	50.7614
1050.44	23.8746
1053.33	40.5095
1056.22	33.1008
1059.12	48.0975
1062.01	62.2816
1064.9	56.1812
1067.8	31.2306
1070.69	37.6073
1073.58	31.4424
1076.47	43.3109
1079.37	47.8655
1082.26	34.3748
1085.15	51.1818
1088.04	57.1414
1090.94	25.0385
1093.83	39.2694
1096.72	35.4232
1099.61	6.28149
1102.51	30.322
1105.4	10.6025
1108.29	4.59936
1111.18	24.6578
1114.08	3.5669
1116.97	24.6028
1119.86	42.2405
1122.76	34.9591
1125.65	30.8762
1128.54	23.0319
1131.43	0.388977
1134.33	23.0438
1137.22	5.78424
1140.11	0.702332
1143.01	3.08734
1145.9	11.6631
1148.79	3.29517
1151.68	8.67065
1154.58	13.5597
1157.47	31.5812
1160.36	22.1069
1163.25	23.5953
1166.15	43.2344
1169.04	12.9495
1171.93	25.9807
1174.82	30.2422
1177.72	14.1631
1180.61	15.6605
1183.5	24.4249
1186.39	9.90601
1189.29	9.99115
1192.18	18.8087
1195.07	14.9308
1197.97	15.9739
1200.86	23.9283
1203.75	34.393
1206.64	28.6434
1209.54	18.2205
1212.43	7.4043
1215.32	4.51398
1218.21	24.5902
1221.11	17.1915
1224	12.7017
1226.89	32.5685
1229.79	12.764
1232.68	33.1525
1235.57	40.6171
1238.46	28.0513
1241.36	17.3075
1244.25	21.9515
1247.14	4.72864
1250.04	24.8357
1252.93	30.7507
1255.82	8.81262
1258.71	0.558838
1261.61	0
