Measurement: Raman, 785 nm, unoriented, Raman Data Processed
Mineral: Kapustinite
Rruff sample: R060896
Ideal chemistry: Na_6_Zr^4+^Si_6_O_16_(OH)_2_
Locality: Palitra pegmatite, Kedykverpakhk Mountain, Lovozero Massif, Russia
Source: Michael Scott
Description: Reddish brown vitreous massive fragment
Raman shift (cm-1)	intensity
142.741	0
145.633	391.594
148.526	1019.79
151.419	1060.1
154.311	702.04
157.204	315.018
160.097	256.089
162.989	494.752
165.882	766.332
168.775	979.121
171.668	968.232
174.56	841.876
177.453	658.339
180.346	477.544
183.238	508.693
186.131	430.954
189.024	438.404
191.917	390.005
194.809	313.418
197.702	388.11
200.595	270.405
203.487	185.282
206.38	193.618
209.273	65.9399
212.165	80.4053
215.058	24.7461
217.951	21.6377
220.844	33.374
223.736	102.043
226.629	13.7148
229.522	63.6426
232.414	47.7647
235.307	23.3926
238.2	103.838
241.092	187.047
243.985	135.026
246.878	144.007
249.77	102.123
252.663	96.5703
255.556	107.292
258.449	92.8281
261.341	183.652
264.234	223.399
267.127	143.681
270.019	140.41
272.912	86.25
275.805	116.04
278.697	184.873
281.59	183.319
284.483	101.856
287.376	440.244
290.268	8.11816
293.161	109.166
296.054	234.123
298.946	98.0527
301.839	62.9658
304.732	42.9658
307.625	75.7353
310.517	44.3438
313.41	112.553
316.303	99.0684
319.195	141.375
322.088	281.889
324.981	419.207
327.873	661.358
330.766	822.529
333.659	911.498
336.551	963.839
339.444	1034.76
342.337	1120.09
345.23	1292.41
348.122	1449.72
351.015	1557.06
353.908	1598.02
356.8	1494.05
359.693	1472.56
362.586	1506.16
365.478	1539.17
368.371	1667.96
371.264	1745.73
374.157	1924.03
377.049	1970.23
379.942	1917.9
382.835	1835.22
385.727	1769.99
388.62	1645.23
391.513	1790.06
394.406	1683.83
397.298	1767.88
400.191	1678.22
403.084	1489.9
405.976	1355.35
408.869	1318.49
411.762	1275.07
414.654	1239.55
417.547	1267.69
420.44	1240.99
423.332	1130.49
426.225	1061.18
429.118	860.601
432.011	832.373
434.903	784.334
437.796	767.779
440.689	795.701
443.581	755.191
446.474	719.512
449.367	647.396
452.26	616.265
455.152	521.523
458.045	482.371
460.938	467.857
463.83	402.92
466.723	320.296
469.616	268.487
472.508	251.623
475.401	101.362
478.294	9.51758
481.187	8.52637
484.079	32.0986
486.972	21.0684
489.865	19.6289
492.757	66.6406
495.65	28.4023
498.543	77.2734
501.435	130.537
504.328	115.848
507.221	16.7891
510.114	26.3467
513.006	73.6299
515.899	67.3262
518.792	118.208
521.684	165.467
524.577	204.682
527.47	285.872
530.362	348.982
533.255	470.511
536.148	584.446
539.04	656.928
541.933	805.705
544.826	783.446
547.719	967.316
550.611	884.25
553.504	764.03
556.397	758.165
559.289	584.841
562.182	473.398
565.075	423.858
567.967	276.394
570.86	144.722
573.753	132.076
576.646	141.606
579.538	232.632
582.431	175.142
585.324	236.796
588.216	229.616
591.109	153.803
594.002	150.193
596.895	224.496
599.787	170.176
602.68	247.547
605.573	150.085
608.465	168.42
611.358	138.495
614.251	65.8545
617.144	80.5781
620.036	18.5029
622.929	117.562
625.822	67.9473
628.714	63.5234
631.607	113.172
634.5	28.9385
637.392	43.9072
640.285	11.8369
643.178	38.1445
646.071	52.0381
648.963	7.67285
651.856	70.21
654.749	0.142578
657.641	72.1611
660.534	52.1484
663.427	14.6787
666.319	32.5342
669.212	29.998
672.105	36.1914
674.997	40.2363
677.89	32.0576
680.783	54.1074
683.676	75.7353
686.568	21.0078
689.461	102.773
692.354	76.7891
695.246	94.1006
698.139	113.37
701.032	85.6982
703.924	184.041
706.817	100.409
709.71	95.0615
712.603	82.2383
715.495	199.75
718.388	143.226
721.281	103.633
724.173	102.663
727.066	46.2227
729.959	120.22
732.851	101.983
735.744	160.973
738.637	183.566
741.53	105.963
744.422	143.52
747.315	159.446
750.208	185.747
753.1	144.293
755.993	135.641
758.886	75.1856
761.779	119.329
764.671	92.4551
767.564	104.9
770.457	121.941
773.349	219.449
776.242	122.086
779.135	56.7744
782.027	96.7568
784.92	116.099
787.813	136.27
790.706	139.286
793.598	59.1748
796.491	37.8008
799.384	114.038
802.276	8.02539
805.169	48.1406
808.062	118.648
810.954	18.7324
813.847	96.2178
816.74	18.2236
819.633	45.9346
822.525	4.45898
825.418	12.3633
828.311	21.1631
831.203	7.03516
834.096	84.1963
836.989	29.1533
839.881	21.6006
842.774	37.7842
845.667	9.52734
848.559	126.872
851.452	121.822
854.345	136.029
857.238	153.004
860.13	118.29
863.023	236.435
865.916	229.474
868.808	195.231
871.701	269.54
874.594	277.401
877.486	246.442
880.379	316.337
883.272	359.45
886.165	402.597
889.057	403.69
891.95	389.179
894.843	331.085
897.735	327.688
900.628	272.14
903.521	242.079
906.413	229.877
909.306	207.549
912.199	246.363
915.092	84.4404
917.984	35.8477
920.877	71.6475
923.77	10.1367
926.663	42.4336
929.555	98.4941
932.448	61.959
935.341	134.465
938.233	6.07519
941.126	33.502
944.019	0.313477
946.911	13.2393
949.804	34.3184
952.697	107.525
955.59	105.756
958.482	67.3506
961.375	141.852
964.268	77.251
967.16	51.7451
970.053	6.75586
972.946	55.0215
975.838	56.1768
978.731	47.1621
981.624	112.974
984.516	52.5547
987.409	34.8613
990.302	22.7734
993.195	3.51367
996.087	52.3789
998.98	143.209
1001.87	149.663
1004.76	127.17
1007.66	179.702
1010.55	159.685
1013.44	234.375
1016.34	174.645
1019.23	234.335
1022.12	238.341
1025.01	290.729
1027.91	295.694
1030.8	330.777
1033.69	270.916
1036.59	335.29
1039.48	294.74
1042.37	260.694
1045.26	317.235
1048.16	335.534
1051.05	345.806
1053.94	331.054
1056.83	367.672
1059.73	415.205
1062.62	347.092
1065.51	336.205
1068.4	286.312
1071.3	234.545
1074.19	303.053
1077.08	291.643
1079.98	244.434
1082.87	80.6016
1085.76	170.633
1088.65	115.531
1091.55	32.668
1094.44	104.981
1097.33	59.8281
1100.22	97.2988
1103.12	136.43
1106.01	64.3086
1108.9	39.7656
1111.8	18.4824
1114.69	241.842
1117.58	181.078
1120.47	251.592
1123.37	395.205
1126.26	439.721
1129.15	567.814
1132.04	487.617
1134.94	637.311
1137.83	607.019
1140.72	849.111
1143.62	918.504
1146.51	920.469
1149.4	900.031
1152.29	1028.73
1155.19	988.828
1158.08	1113.23
1160.97	1157.84
1163.86	1132.21
1166.76	1047.52
1169.65	940.445
1172.54	908.719
1175.43	924.727
1178.33	869.695
1181.22	641.59
1184.11	653.402
1187.01	631.953
1189.9	671.133
1192.79	607.512
1195.68	473.625
1198.58	445.953
1201.47	560.699
1204.36	373.031
1207.25	94.1406
1210.15	45.2773
1213.04	84.2891
