Measurement: Raman, 780 nm, unoriented, Raman Data RAW
Mineral: Katoite
Rruff sample: R080034
Ideal chemistry: Ca_3_Al_2_(OH)_12_
Locality: Wilui River, Russia
Source: Royal Ontario Museum
Description: Pale yellow to colorless euhedral crystals associated with dark brown andradite crystals
Raman shift (cm-1)	intensity
106.023	47391.7
109.398	47309.7
112.773	47379.7
116.147	47440.5
119.522	47448.8
122.897	47442.4
126.272	47473.9
129.647	47643.7
133.022	47750.2
136.396	47811.5
139.771	47855.5
143.146	47919.1
146.521	48043
149.895	48098.1
153.27	48148.8
156.645	48097.4
160.02	48099.9
163.395	48083.6
166.77	48081.6
170.144	48087.6
173.519	48188.4
176.894	48046.7
180.269	48048.3
183.644	47992.9
187.018	47983.9
190.393	47910.2
193.768	47862.8
197.143	47828.9
200.518	47801.7
203.893	47679.9
207.267	47731.7
210.642	47681.2
214.017	47690.3
217.392	47583.4
220.767	47598.6
224.142	47578.8
227.516	47543.1
230.891	47468.2
234.266	47331.5
237.641	47265.9
241.016	47154.3
244.39	47039
247.765	46971.7
251.14	46913.2
254.515	46818.6
257.89	46715.8
261.264	46624.6
264.639	46583.8
268.014	46551.9
271.389	46450.8
274.764	46393.8
278.139	46217.2
281.513	46134.5
284.888	46098.2
288.263	45929.5
291.638	45825.2
295.013	45750.2
298.387	45658
301.762	45587.8
305.137	45410.7
308.512	45242.8
311.887	45223.6
315.262	45144
318.636	45029.3
322.011	44944.4
325.386	44824.6
328.761	44679.4
332.136	44579.9
335.51	44516.9
338.885	44446.7
342.26	44362.3
345.635	44350.2
349.01	44327.7
352.385	44278.5
355.759	44236.7
359.134	44163
362.509	44014.8
365.884	43837.3
369.259	43652.1
372.633	43513.4
376.008	43213.3
379.383	42908.5
382.758	42678.9
386.133	42516.1
389.507	42384.1
392.882	42243.6
396.257	42127.6
399.632	41960.6
403.007	41893.4
406.382	41746.3
409.756	41620.4
413.131	41546
416.506	41391.5
419.881	41302.9
423.256	41233.6
426.63	41114.5
430.005	40872.1
433.38	40887.3
436.755	40741
440.13	40620.8
443.505	40523.1
446.879	40404
450.254	40261.5
453.629	40075.3
457.004	40002.2
460.379	39897
463.753	39757.3
467.128	39651.2
470.503	39533.8
473.878	39388.8
477.253	39259.8
480.627	39082.6
484.002	39005.5
487.377	38836
490.752	38668.4
494.127	38578.4
497.502	38461.9
500.876	38307.5
504.251	38160.4
507.626	38058
511.001	37909.9
514.376	37835.4
517.75	37718.9
521.125	37544.8
524.5	37439.4
527.875	37307.5
531.25	37250.5
534.625	37076.8
537.999	36880.5
541.374	36726.2
544.749	36625.5
548.124	36493.3
551.499	36333.1
554.873	36164.4
558.248	36003.2
561.623	35906.8
564.998	35760.3
568.373	35647.6
571.747	35521.8
575.122	35443.6
578.497	35326.8
581.872	35218.1
585.247	35010.9
588.621	35024.1
591.996	34872.5
595.371	34834.4
598.746	34658.4
602.121	34571.1
605.496	34435.7
608.87	34288.8
612.245	34174.8
615.62	34123.8
618.995	34034.2
622.37	33903.4
625.745	33761.6
629.119	33615
632.494	33456.8
635.869	33324.5
639.244	33206.9
642.619	33142.1
645.993	32959.8
649.368	32843
652.743	32733.2
656.118	32647.9
659.493	32498.4
662.867	32370.4
666.242	32197.7
669.617	32086
672.992	32007.3
676.367	31919.8
679.742	31741.2
683.116	31669.3
686.491	31565.9
689.866	31491.7
693.241	31294.6
696.616	31234.2
699.99	31151.9
703.365	30993.8
706.74	30828.7
710.115	30745.8
713.49	30650.9
716.865	30514.3
720.239	30433.7
723.614	30375.1
726.989	30250.2
730.364	30152.7
733.739	30087.6
737.113	29919
740.488	29875.6
743.863	29768
747.238	29716.2
750.613	29625.7
753.987	29526.9
757.362	29366.7
760.737	29310.6
764.112	29182.8
767.487	29098.1
770.862	28994
774.236	28891.7
777.611	28842.5
780.986	28749.5
784.361	28642.3
787.736	28551.3
791.111	28527.2
794.485	28419.9
797.86	28378.6
801.235	28262.1
804.61	28179.2
807.985	28111.1
811.359	28139.3
814.734	28038.3
818.109	27891.3
821.484	27776.5
824.859	27710
828.234	27656.1
831.608	27554
834.983	27502.3
838.358	27327
841.733	27313.7
845.107	27230.9
848.482	27121.3
851.857	27031.3
855.232	26967.3
858.607	26908.4
861.982	26843.9
865.356	26768.4
868.731	26730.8
872.106	26643.7
875.481	26539.1
878.856	26413.4
882.231	26253.2
885.605	26146.6
888.98	26081.8
892.355	25955.5
895.73	25902.8
899.105	25778.1
902.479	25688.6
905.854	25575.5
909.229	25545.6
912.604	25469.3
915.979	25389.4
919.354	25299.1
922.728	25214.9
926.103	25135.1
929.478	25093.6
932.853	25032.4
936.227	24953.1
939.602	24818.2
942.977	24781.5
946.352	24708.9
949.727	24672.1
953.102	24663.1
956.476	24527.6
959.851	24493.8
963.226	24416.8
966.601	24365.4
969.976	24234.5
973.351	24189.1
976.725	24144.1
980.1	24029.9
983.475	23942.4
986.85	23932.3
990.225	23881.3
993.599	23825.5
996.974	23777.6
1000.35	23645.6
1003.72	23606.5
1007.1	23554.3
1010.47	23521.4
1013.85	23442.6
1017.22	23424.1
1020.6	23425.8
1023.97	23365.1
1027.35	23288.8
1030.72	23242.5
1034.1	23211.5
1037.47	23167.2
1040.85	23122.8
1044.22	23000.4
1047.6	22992.4
1050.97	22907.7
1054.35	22915.8
1057.72	22815.5
1061.1	22761.8
1064.47	22719.1
1067.85	22651.1
1071.22	22633.7
1074.6	22567.7
1077.97	22516.2
1081.35	22424.8
1084.72	22423.5
1088.09	22406.7
1091.47	22281.8
1094.84	22238.6
1098.22	22157.9
1101.59	22120.6
1104.97	22081.2
1108.34	22048.7
1111.72	21988
1115.09	21937.9
1118.47	21895.1
1121.84	21832.7
1125.22	21814
1128.59	21745.2
1131.97	21757.7
1135.34	21722.3
1138.72	21660.2
1142.09	21656.8
1145.47	21644.1
1148.84	21649.9
1152.22	21603.2
1155.59	21514.1
1158.96	21545.6
1162.34	21494
1165.71	21464.3
1169.09	21416.2
1172.46	21398
1175.84	21336.7
1179.21	21339.2
1182.59	21308.5
1185.96	21257.8
1189.34	21215.6
1192.71	21192.7
1196.09	21134.7
1199.46	21138.7
1202.84	21090
1206.21	21003.7
1209.59	20983.3
1212.96	20925.4
1216.34	20905.5
1219.71	20827.7
1223.09	20716.1
1226.46	20667.8
1229.84	20696
1233.21	20661.6
1236.59	20627.7
1239.96	20633.2
1243.34	20527.1
1246.71	20511.4
1250.09	20475.8
1253.46	20441.9
1256.84	20411.9
1260.21	20391.6
1263.59	20348.8
1266.96	20322.2
1270.33	20284
1273.71	20294
1277.08	20274.7
1280.46	20249.8
1283.83	20219.2
1287.21	20175.3
