Measurement: Raman, 532 nm, unoriented, Raman Data Processed
Mineral: Katoite
Rruff sample: R070646
Ideal chemistry: Ca_3_Al_2_(OH)_12_
Locality: Synthetic
Source: Marcus Origlieri
Description: White to colorless powder mixed with small trapezohedral crystals, sample from Lager et al (2002) study.
Raman shift (cm-1)	intensity
137.587	0
140.962	1.53882
144.337	22.2671
147.712	67.1138
151.087	113.742
154.462	165.864
157.836	202.941
161.211	235.968
164.586	234.695
167.961	212.588
171.336	171.681
174.71	116.826
178.085	76.882
181.46	46.9363
184.835	22.8511
188.21	9.68896
191.584	0.680237
194.959	0.860779
198.334	4.0155
201.709	4.07944
205.084	11.5429
208.459	18.118
211.833	31.8218
215.208	41.2593
218.583	58.5922
221.958	63.2178
225.333	73.2023
228.708	70.6453
232.082	74.8463
235.457	73.0528
238.832	70.1453
242.207	60.8545
245.582	48.1754
248.956	37.9581
252.331	25.3264
255.706	12.1383
259.081	1.44614
262.456	2.67026
265.83	4.86612
269.205	4.84689
272.58	3.54453
275.955	2.4126
279.33	5.56784
282.704	7.16641
286.079	12.2785
289.454	18.5057
292.829	29.0054
296.204	48.082
299.579	68.2077
302.953	94.8105
306.328	133.086
309.703	181.926
313.078	235.556
316.453	302.345
319.827	371.611
323.202	418.736
326.577	454.398
329.952	463.615
333.327	437.004
336.702	383.723
340.076	324.6
343.451	264.812
346.826	213.221
350.201	165.322
353.576	128.684
356.95	95.4266
360.325	77.76
363.7	68.019
367.075	55.5425
370.45	62.1073
373.825	66.8077
377.199	77.2919
380.574	84.9957
383.949	99.1697
387.324	99.9982
390.699	97.1891
394.074	88.5305
397.448	82.4385
400.823	64.0025
404.198	59.0184
407.573	45.578
410.947	31.4762
414.322	25.4476
417.697	12.3794
421.072	10.2785
424.447	1.00269
427.822	4.25171
431.196	6.13135
434.571	11.3944
437.946	12.0809
441.321	6.40387
444.696	2.94434
448.07	4.02313
451.445	9.6095
454.82	22.22
458.195	31.1642
461.57	47.6067
464.945	58.4612
468.319	86.9716
471.694	106.326
475.069	131.095
478.444	156.007
481.819	193.742
485.193	230.344
488.568	265.062
491.943	311.364
495.318	348.842
498.693	404.516
502.068	463.972
505.442	533.407
508.817	604.513
512.192	691.302
515.567	780.533
518.942	875.33
522.317	966.908
525.691	1062.35
529.066	1142.4
532.441	1178.97
535.816	1179.38
539.191	1123.72
542.565	1021.47
545.94	886.112
549.315	733.866
552.69	575.24
556.065	430.042
559.439	312.582
562.814	219.364
566.189	156.856
569.564	106.952
572.939	67.1865
576.313	40.3082
579.688	22.355
583.063	5.11694
586.438	4.52521
589.813	0.299988
593.188	3.99359
596.562	4.47351
599.937	8.10895
603.312	2.61054
606.687	7.19128
610.062	0.391296
613.437	0.628418
616.811	0.950012
620.186	4.62366
623.561	5.14081
626.936	8.42505
630.311	10.0625
633.685	16.5246
637.06	14.6258
640.435	17.6056
643.81	23.6293
647.185	15.9386
650.559	21.4685
653.934	15.5879
657.309	19.7117
660.684	13.7463
664.059	11.3837
667.434	8.14813
670.808	4.16705
674.183	5.50452
677.558	7.08008
680.933	4.52057
684.308	7.64783
687.683	3.78155
691.057	3.72589
694.432	5.81061
697.807	0.959534
701.182	0.656067
704.557	0.286255
707.931	1.90973
711.306	4.31543
714.681	1.00971
718.056	2.96985
721.431	1.44196
724.805	2.34387
728.18	1.32379
731.555	0.975525
734.93	4.0434
738.305	4.5614
741.679	12.2785
745.054	12.3156
748.429	19.2758
751.804	25.3082
755.179	32.0309
758.554	37.5796
761.928	38.7205
765.303	43.6408
768.678	44.8822
772.053	53.3162
775.428	56.6907
778.803	57.0348
782.177	54.4859
785.552	54.9481
788.927	60.8644
792.302	58.4382
795.677	55.878
799.051	63.5323
802.426	60.0915
805.801	66.2507
809.176	62.8505
812.551	63.6906
815.926	64.4819
819.3	55.73
822.675	55.8482
826.05	56.7722
829.425	47.7196
832.8	43.05
836.174	35.1975
839.549	29.3309
842.924	26.5057
846.299	16.7866
849.674	15.2544
853.048	14.519
856.423	8.69623
859.798	6.32037
863.173	2.38556
866.548	1.54083
869.923	0.21698
873.297	1.4281
876.672	1.77649
880.047	0.74231
883.422	1.86688
886.797	1.8595
890.171	0.102722
893.546	3.68079
896.921	5.82892
900.296	7.34699
903.671	8.56372
907.045	8.47888
910.42	11.2359
913.795	12.9883
917.17	11.4352
920.545	15.3224
923.92	14.6111
927.294	14.648
930.669	11.7155
934.044	15.5187
937.419	16.3338
940.794	11.3639
944.168	11.175
947.543	7.88736
950.918	9.03247
954.293	7.33521
957.668	7.47821
961.043	2.2572
964.417	4.9032
967.792	5.75018
971.167	5.77423
974.542	6.02664
977.917	1.00522
981.291	4.31305
984.666	3.03742
988.041	1.91049
991.416	0.103577
994.791	1.61078
998.165	1.05484
1001.54	2.06989
1004.91	0.553802
1008.29	3.88251
1011.66	2.04248
1015.04	2.46085
1018.41	6.26736
1021.79	4.12564
1025.16	2.09885
1028.54	1.21622
1031.91	4.86002
1035.29	4.09988
1038.66	2.43515
1042.04	2.05594
1045.41	6.52249
1048.79	5.15845
1052.16	10.755
1055.54	11.3379
1058.91	20.608
1062.29	33.9362
1065.66	54.7036
1069.04	71.8841
1072.41	27.9299
1075.79	10.6675
1079.16	10.9348
1082.54	17.5472
1085.91	35.9365
1089.29	17.7768
1092.66	2.9314
1096.04	2.68268
1099.41	0.551361
1102.79	1.83679
1106.16	1.5004
1109.53	2.34897
1112.91	2.52414
1116.28	1.64066
1119.66	1.87152
1123.03	3.27307
1126.41	2.08524
1129.78	1.90271
1133.16	3.55499
1136.53	2.13217
1139.91	1.8479
1143.28	1.96259
1146.66	1.18555
1150.03	1.85702
1153.41	3.03061
1156.78	5.59152
1160.16	2.79745
1163.53	1.06064
1166.91	5.01678
1170.28	1.54822
1173.66	3.39566
1177.03	0.281006
1180.41	2.03272
1183.78	2.06692
1187.15	0.441528
1190.53	4.06372
1193.9	2.08221
1197.28	4.6283
1200.65	0.906891
1204.03	0.931122
1207.4	0.315277
1210.78	4.37528
1214.15	1.91174
1217.53	4.62216
1220.9	1.15494
1224.28	2.83206
1227.65	4.80594
1231.03	2.82004
1234.4	1.03705
1237.78	1.55734
1241.15	1.81714
1244.53	3.46558
1247.9	2.14273
1251.28	1.47525
1254.65	1.19601
1258.03	2.20483
1261.4	1.24542
1264.78	0.556274
1268.15	3.91156
1271.53	2.38312
1274.9	5.3855
1278.28	0.444336
1281.65	0.255585
1285.03	3.43954
1288.4	4.85727
1291.78	2.01587
1295.15	6.50687
1298.52	5.36255
1301.9	1.77548
1305.27	0
