Measurement: Raman, 780 nm, unoriented, Raman Data Processed
Mineral: Katoite
Rruff sample: R070646
Ideal chemistry: Ca_3_Al_2_(OH)_12_
Locality: Synthetic
Source: Marcus Origlieri
Description: White to colorless powder mixed with small trapezohedral crystals, sample from Lager et al (2002) study.
Raman shift (cm-1)	intensity
94.4522	0
97.827	14.4734
101.202	15.4709
104.577	14.227
107.951	9.12921
111.326	0.998596
114.701	0.401703
118.076	2.1911
121.451	3.63525
124.826	4.12994
128.2	3.44031
131.575	8.21411
134.95	11.15
138.325	22.0769
141.7	30.7415
145.074	48.6903
148.449	69.0095
151.824	85.439
155.199	107.954
158.574	121.195
161.948	128.431
165.323	119.23
168.698	100.874
172.073	76.9891
175.448	50.3809
178.822	34.9894
182.197	22.2815
185.572	14.5782
188.947	10.1497
192.322	6.88919
195.697	7.22424
199.071	8.93102
202.446	11.9934
205.821	15.4802
209.196	22.7301
212.571	25.9666
215.946	31.9859
219.32	38.4196
222.695	43.0611
226.07	45.5764
229.445	40.7172
232.82	44.7121
236.194	39.1147
239.569	36.5482
242.944	27.3506
246.319	23.2046
249.694	17.7833
253.069	10.1034
256.443	4.10027
259.818	0.275772
263.193	0.556305
266.568	3.25458
269.943	2.76453
273.317	2.6713
276.692	0.044647
280.067	2.5437
283.442	3.04767
286.817	6.48796
290.191	7.0638
293.566	11.5219
296.941	19.2404
300.316	29.0983
303.691	37.5877
307.065	53.9178
310.44	72.397
313.815	92.46
317.19	111.136
320.565	134.69
323.94	150.993
327.314	158.616
330.689	153.583
334.064	140.5
337.439	124.316
340.814	102.386
344.188	85.4709
347.563	71.1789
350.938	53.6033
354.313	39.9933
357.688	26.9318
361.063	22.1111
364.437	20.6215
367.812	17.1622
371.187	22.7549
374.562	23.6959
377.937	33.3528
381.312	32.3777
384.686	38.9997
388.061	36.1157
391.436	34.9711
394.811	34.4398
398.185	26.6396
401.56	23.5591
404.935	21.8725
408.31	15.1907
411.685	13.9669
415.06	8.29579
418.434	3.10941
421.809	2.45702
425.184	2.83484
428.559	4.27873
431.934	2.92981
435.308	4.07152
438.683	3.34596
442.058	1.37709
445.433	0.360474
448.808	3.75056
452.183	6.76874
455.557	11.6926
458.932	15.4481
462.307	24.8129
465.682	28.9348
469.057	46.2298
472.432	57.5519
475.806	67.068
479.181	74.5167
482.556	95.2538
485.931	104.379
489.305	118.519
492.68	138.922
496.055	153.554
499.43	181.096
502.805	208.385
506.18	233.626
509.554	268.233
512.929	296.957
516.304	338.161
519.679	372.335
523.054	407.598
526.428	443.235
529.803	461.278
533.178	465.765
536.553	455.997
539.928	417.212
543.303	375.411
546.677	313.489
550.052	249.8
553.427	192.846
556.802	143.599
560.177	99.5051
563.552	71.3653
566.926	47.352
570.301	32.3222
573.676	18.1661
577.051	11.1023
580.426	3.49223
583.8	0.029114
587.175	0.231369
590.55	1.88223
593.925	2.92023
597.3	3.27412
600.674	1.43622
604.049	1.13905
607.424	0.090302
610.799	0.313522
614.174	3.54748
617.548	1.76057
620.923	5.73151
624.298	5.48022
627.673	4.82614
631.048	7.27278
634.423	7.99126
637.797	9.75008
641.172	10.6827
644.547	9.0714
647.922	10.6932
651.297	10.3941
654.672	10.2886
658.046	8.45006
661.421	5.63506
664.796	4.17213
668.171	4.32016
671.546	6.02721
674.92	5.26114
678.295	1.44962
681.67	6.42
685.045	3.55254
688.42	3.3214
691.794	2.54739
695.169	3.80498
698.544	4.1935
701.919	2.22102
705.294	0.238495
708.669	3.30563
712.043	0.131714
715.418	1.59976
718.793	2.54274
722.168	1.41348
725.543	2.65717
728.918	0.3284
732.292	1.76654
735.667	2.97201
739.042	4.83493
742.417	4.52014
745.792	4.61365
749.166	9.73238
752.541	8.91724
755.916	16.3647
759.291	15.4542
762.666	16.312
766.04	18.7349
769.415	19.4477
772.79	22.284
776.165	24.5401
779.54	23.8486
782.914	23.1801
786.289	26.9789
789.664	28.155
793.039	24.9985
796.414	28.8818
799.789	29.5298
803.163	29.9793
806.538	28.1614
809.913	31.3305
813.288	29.2128
816.663	27.3821
820.038	27.8358
823.412	25.0237
826.787	22.9191
830.162	20.4919
833.537	17.4698
836.912	17.2038
840.286	12.4005
843.661	12.1639
847.036	10.4087
850.411	6.71771
853.786	4.20377
857.16	1.7491
860.535	0.03598
863.91	0.375702
867.285	3.61841
870.66	0.576996
874.034	0.27507
877.409	1.22025
880.784	1.07739
884.159	0.6371
887.534	0.157547
890.909	1.39409
894.283	0.092606
897.658	3.52133
901.033	1.87186
904.408	2.88167
907.783	4.07101
911.158	2.82484
914.532	7.02557
917.907	6.88399
921.282	5.73209
924.657	7.01875
928.032	7.26588
931.406	6.48022
934.781	6.8214
938.156	6.62183
941.531	6.12954
944.906	4.96278
948.28	3.80373
951.655	5.21332
955.03	4.40926
958.405	3.03475
961.78	3.11528
965.154	3.29826
968.529	1.14449
971.904	1.5633
975.279	3.11379
978.654	3.13123
982.029	3.18554
985.403	3.31739
988.778	2.76793
992.153	2.92182
995.528	1.53138
998.903	2.48319
1002.28	2.55219
1005.65	0.96981
1009.03	1.96173
1012.4	2.21101
1015.78	0.451538
1019.15	0.731781
1022.53	0.089371
1025.9	0.042595
1029.28	1.17255
1032.65	0.474152
1036.03	2.05125
1039.4	0.200996
1042.78	3.48919
1046.15	4.87753
1049.53	3.46403
1052.9	5.56489
1056.28	7.16712
1059.65	6.29613
1063.02	13.3945
1066.4	23.5211
1069.77	17.0945
1073.15	6.80687
1076.52	4.0311
1079.9	3.06628
1083.27	8.54913
1086.65	11.6095
1090.02	2.52758
1093.4	1.00676
1096.77	1.75986
1100.15	3.12354
1103.52	1.98356
1106.9	1.05896
1110.27	1.22256
1113.65	0.376396
1117.02	0.445763
1120.4	0.461876
1123.77	0.423416
1127.15	2.29993
1130.52	3.67541
1133.89	3.11539
1137.27	7.76582
1140.64	7.15422
1144.02	9.62035
1147.39	5.66097
1150.77	2.28343
1154.14	3.51144
1157.52	2.66042
1160.89	2.70138
1164.27	2.59017
1167.64	4.01684
1171.02	1.01231
1174.39	3.56242
1177.77	2.34734
1181.14	0.118034
1184.52	0.209068
1187.89	3.17003
1191.27	1.0653
1194.64	2.67046
1198.02	3.30167
1201.39	3.47332
1204.77	2.02528
1208.14	2.03347
1211.52	1.66525
1214.89	2.81141
1218.27	1.05403
1221.64	1.24369
1225.02	0.957218
1228.39	2.02895
1231.77	2.589
1235.14	3.33006
1238.52	0.247551
1241.89	2.3625
1245.26	0.524651
1248.64	3.25202
1252.01	3.82401
1255.39	2.83621
1258.76	0.786194
1262.14	1.84667
1265.51	2.48128
1268.89	0.72081
1272.26	0.271767
1275.64	0.292381
1279.01	1.28101
1282.39	1.99175
1285.76	1.81531
