Measurement: Raman, 780 nm, unoriented, Raman Data RAW
Mineral: Kettnerite
Rruff sample: R130113
Ideal chemistry: CaBi^3+^O(CO_3_)F
Locality: Flying Saucer Group, Maricopa County, Arizona
Source: Mark Ascher
Description: Both colorless and lemon-yellow small platy crystals, associated with R130114 eulytine, and yellow-green mottramite
Raman shift (cm-1)	intensity
103.735	7474.62
107.109	7429.1
110.484	7420.05
113.859	7508.9
117.234	7584.84
120.609	7708.8
123.984	7837.96
127.358	8048.35
130.733	8352.13
134.108	8893.49
137.483	9777.17
140.858	11198.8
144.232	13327.7
147.607	16462.6
150.982	19836.1
154.357	19210.1
157.732	16640
161.107	15498.8
164.481	15576.6
167.856	16329.5
171.231	17265.5
174.606	18313.5
177.981	19346.9
181.355	20172.4
184.73	20720.2
188.105	21129.5
191.48	21615.6
194.855	21798.1
198.229	21629.8
201.604	22119.8
204.979	23274.6
208.354	24776.2
211.729	26490.9
215.103	28386.6
218.478	30081.8
221.853	31390.3
225.228	32094.7
228.603	32301.9
231.978	32576.2
235.352	33495
238.727	34772.1
242.102	36023.8
245.477	37178
248.852	37613.6
252.226	37107.2
255.601	35811.3
258.976	34326.1
262.351	32731.5
265.726	31426.1
269.101	30537.3
272.475	30065.9
275.85	29973.2
279.225	30220.9
282.6	30846.5
285.975	31694.6
289.349	32978.4
292.724	34409.4
296.099	36157.4
299.474	38188.7
302.849	40570.8
306.224	43513.9
309.598	47066.7
312.973	51715.1
316.348	57712.1
319.723	65092.4
323.098	74223.7
326.472	84607.6
329.847	96390
333.222	107891
336.597	118776
339.972	127305
343.346	133204
346.721	136084
350.096	134838
353.471	130598
356.846	124868
360.221	120039
363.595	117622
366.97	118407
370.345	122138
373.72	127493
377.095	134869
380.469	142073
383.844	146844
387.219	148066
390.594	145555
393.969	140019
397.344	133158
400.718	126687
404.093	120921
407.468	116276
410.843	113078
414.217	110535
417.592	108252
420.967	106079
424.342	102998
427.717	99203.7
431.092	94846.8
434.466	89814.7
437.841	84698.6
441.216	79781.3
444.591	75449.5
447.966	72034.3
451.341	69083.4
454.715	66894.6
458.09	65406.7
461.465	64586.8
464.84	64303.3
468.215	64677
471.589	65581.3
474.964	66720.4
478.339	67669.2
481.714	68219.6
485.089	67724.6
488.463	66366.9
491.838	63957.1
495.213	61039.5
498.588	57673.5
501.963	54365.7
505.337	51711.1
508.712	49290.6
512.087	47503.9
515.462	46098.6
518.837	44678.7
522.212	43632.5
525.586	42628.6
528.961	41703.8
532.336	40807.1
535.711	40298.1
539.086	39889.8
542.46	39553.2
545.835	39434.3
549.21	39332.8
552.585	39373.3
555.96	39245.2
559.335	39202.5
562.709	39320.9
566.084	39357.3
569.459	39269.1
572.834	39163.1
576.209	39123.9
579.583	39041.3
582.958	38854.9
586.333	38757
589.708	38423.4
593.083	38024.1
596.457	37304.8
599.832	36544.9
603.207	35820.9
606.582	34923
609.957	34007.4
613.332	32906.6
616.706	31731.9
620.081	30467.8
623.456	29242.1
626.831	27936.7
630.206	26731.4
633.58	25632.6
636.955	24564.2
640.33	23734.6
643.705	22950.9
647.08	22315.5
650.455	21785.4
653.829	21277.3
657.204	20901.7
660.579	20606
663.954	20330.6
667.329	20261.5
670.703	20126.1
674.078	20086.6
677.453	20121.6
680.828	20228.8
684.203	20371.6
687.577	20497.5
690.952	20671.3
694.327	20889.4
697.702	21161.7
701.077	21382.6
704.452	21421.8
707.826	21414.5
711.201	21235.8
714.576	21017.2
717.951	20632.6
721.326	20253.5
724.7	19826.1
728.075	19312.6
731.45	18878.6
734.825	18246.8
738.2	17600.8
741.574	16932.9
744.949	16254.6
748.324	15567.7
751.699	14844.4
755.074	14193.4
758.449	13624.1
761.823	13237.3
765.198	12989.5
768.573	12964.9
771.948	13034.3
775.323	13348
778.697	13762.1
782.072	13969.5
785.447	13821.4
788.822	13535.5
792.197	13356.5
795.572	13033.4
798.946	12451
802.321	11615.9
805.696	10966.8
809.071	10553.3
812.446	10422.2
815.82	10568.1
819.195	10801
822.57	10938
825.945	10742.8
829.32	10229.6
832.694	9561.4
836.069	9025.19
839.444	8655.6
842.819	8452.85
846.194	8352.1
849.569	8284.88
852.943	8301.15
856.318	8354.8
859.693	8400.17
863.068	8482.77
866.443	8506.51
869.817	8560.52
873.192	8687.48
876.567	8831.38
879.942	8979.67
883.317	9238.5
886.692	9679.13
890.066	10263.3
893.441	11164.5
896.816	12383.5
900.191	14076.9
903.566	15886.2
906.94	17802.8
910.315	19263.7
913.69	20039.3
917.065	20126.3
920.44	19323.2
923.814	17617.9
927.189	15401.6
930.564	13458.9
933.939	11928.9
937.314	10959
940.689	10399.8
944.063	10005.6
947.438	9890.18
950.813	9742.48
954.188	9668.65
957.563	9692.22
960.937	9851.55
964.312	10010.6
967.687	10145.2
971.062	10352.7
974.437	10522.2
977.812	10770.1
981.186	11136
984.561	11356.8
987.936	11668.9
991.311	12028.6
994.686	12460.4
998.06	12842.5
1001.43	13260.6
1004.81	13761
1008.18	14234.2
1011.56	14713.4
1014.93	15218.7
1018.31	15780.5
1021.68	16226.1
1025.06	16738.2
1028.43	17250.9
1031.81	17685.2
1035.18	18111.4
1038.56	18485.7
1041.93	18917.5
1045.31	19226.2
1048.68	19668.7
1052.06	19970.4
1055.43	20415.4
1058.81	20891.2
1062.18	21372.6
1065.56	22192.5
1068.93	23499.3
1072.31	23824.9
1075.68	23979.2
1079.06	24383.1
1082.43	25055.3
1085.81	25943.4
1089.18	26994.4
1092.56	28189.3
1095.93	29324.6
1099.31	30745.3
1102.68	32307.8
1106.05	33855.5
1109.43	35842.4
1112.8	37805.9
1116.18	39957
1119.55	42269.6
1122.93	44948.2
1126.3	47839.8
1129.68	50872.4
1133.05	54264.8
1136.43	57898
1139.8	62242.8
1143.18	66625.2
1146.55	71685.6
1149.93	77267.3
1153.3	84039.2
1156.68	91186.7
1160.05	99553.7
1163.43	109338
1166.8	120359
1170.18	133090
1173.55	147843
1176.93	164205
1180.3	182700
1183.67	203356
1187.05	226578
1190.42	252797
1193.8	281122
1197.17	310930
1200.55	342457
1203.92	372422
1207.3	401863
1210.67	431073
1214.05	458897
1217.42	486109
1220.8	514370
1224.17	542620
1227.55	573289
1230.92	606463
1234.3	643052
1237.67	680344
1241.05	713272
1244.42	739946
1247.8	754744
1251.17	756207
1254.55	740538
1257.92	713520
1261.3	683249
1264.67	655489
1268.05	634750
1271.42	624394
1274.8	625953
1278.17	643307
1281.55	679476
