Measurement: Raman, 780 nm, unoriented, Raman Data Processed
Mineral: Keyite
Rruff sample: R090039
Ideal chemistry: ([box]_0.5_Cu^2+^_0.5_)Cu^2+^Cd^2+^Zn^2+^_2_(As^5+^O_4_)_3_H_2_O
Locality: Tsumeb, Namibia
Source: William W. Pinch
Description: Blue crystals associated with green zincolivenite on matrix of tennantite.
Raman shift (cm-1)	intensity
103.636	0
107.011	4.22842
110.386	23.4334
113.761	6.01349
117.135	15.6869
120.51	9.38727
123.885	26.008
127.26	25.0818
130.635	30.2794
134.01	19.5783
137.384	19.8142
140.759	14.0361
144.134	29.2541
147.509	7.10794
150.884	15.458
154.258	8.36816
157.633	1.56574
161.008	1.45505
164.383	5.32959
167.758	5.30679
171.132	0.774811
174.507	0.95636
177.882	12.5193
181.257	11.9334
184.632	13.343
188.007	11.1535
191.381	12.8075
194.756	9.36527
198.131	13.8727
201.506	9.69879
204.881	7.6864
208.256	10.9925
211.63	7.7912
215.005	11.6506
218.38	6.64993
221.755	11.7398
225.13	4.81146
228.504	10.6572
231.879	12.851
235.254	11.2727
238.629	2.05444
242.004	10.1024
245.378	6.34824
248.753	18.005
252.128	5.7728
255.503	7.51666
258.878	4.42557
262.252	15.6785
265.627	11.2377
269.002	15.3352
272.377	12.5243
275.752	7.38199
279.127	10.1382
282.501	12.6695
285.876	13.4992
289.251	7.33411
292.626	1.52872
296.001	12.3946
299.375	3.03918
302.75	0.792999
306.125	2.65829
309.5	4.17822
312.875	4.47821
316.25	3.11511
319.624	1.28009
322.999	0.784973
326.374	3.77121
329.749	0.452942
333.124	2.12988
336.498	5.01263
339.873	7.81366
343.248	8.67071
346.623	1.69946
349.998	2.74591
353.373	10.8832
356.747	6.29181
360.122	3.24512
363.497	9.25977
366.872	4.55289
370.247	4.5441
373.621	4.13135
376.996	0.773804
380.371	6.03281
383.746	5.13415
387.121	8.85376
390.495	7.70862
393.87	13.954
397.245	15.4139
400.62	7.28784
403.995	1.68347
407.37	8.16202
410.744	9.57852
414.119	12.2811
417.494	9.78976
420.869	4.89328
424.244	7.73733
427.618	10.3896
430.993	0.858032
434.368	0.879456
437.743	7.75247
441.118	3.52451
444.493	2.94958
447.867	7.40286
451.242	2.75751
454.617	1.76971
457.992	5.28351
461.366	7.03854
464.741	15.9597
468.116	6.49826
471.491	11.0143
474.866	14.3888
478.241	16.0189
481.615	13.8819
484.99	5.55841
488.365	18.2602
491.74	25.7729
495.115	24.2282
498.49	25.3108
501.864	13.6642
505.239	14.631
508.614	17.2209
511.989	5.84689
515.364	15.2144
518.738	4.28137
522.113	10.3913
525.488	7.50549
528.863	6.20013
532.238	2.84375
535.612	7.05347
538.987	1.3399
542.362	0.621704
545.737	5.91217
549.112	7.08923
552.486	9.98712
555.861	4.38751
559.236	9.30218
562.611	9.31104
565.986	4.28766
569.361	3.36963
572.735	9.65436
576.11	10.6475
579.485	15.8763
582.86	7.40106
586.235	10.9012
589.61	8.94604
592.984	5.5672
596.359	10.0331
599.734	0.345337
603.109	7.2489
606.484	8.82129
609.858	11.1981
613.233	14.5736
616.608	9.7691
619.983	9.08728
623.358	7.12598
626.732	2.20032
630.107	0.30365
633.482	9.862
636.857	8.96918
640.232	6.98718
643.606	10.3566
646.981	10.7081
650.356	10.8193
653.731	0.101501
657.106	15.3723
660.481	11.428
663.855	9.01086
667.23	12.3923
670.605	13.0845
673.98	8.46497
677.355	4.40759
680.73	13.5598
684.104	5.65839
687.479	2.61725
690.854	1.74316
694.229	6.47076
697.604	9.64246
700.978	3.99652
704.353	1.12897
707.728	12.1489
711.103	1.78272
714.478	13.2113
717.852	15.0715
721.227	13.2535
724.602	6.90771
727.977	6.86322
731.352	8.95618
734.726	15.4143
738.101	0.333252
741.476	0.364197
744.851	4.2262
748.226	0.356506
751.601	2.8147
754.975	0.975281
758.35	0.897156
761.725	3.82098
765.1	3.97595
768.475	2.21942
771.85	5.07074
775.224	2.74701
778.599	3.24811
781.974	16.2764
785.349	17.1375
788.724	23.2139
792.098	27.4673
795.473	31.1331
798.848	26.9554
802.223	20.79
805.598	15.7363
808.972	19.9414
812.347	5.229
815.722	10.0434
819.097	10.615
822.472	5.51361
825.846	12.2364
829.221	20.9821
832.596	33.0023
835.971	52.2726
839.346	57.0701
842.721	71.9448
846.095	78.0283
849.47	73.2941
852.845	69.7261
856.22	49.3976
859.595	44.2919
862.97	39.2892
866.344	45.1767
869.719	39.9605
873.094	37.1721
876.469	32.0746
879.843	13.9866
883.218	31.8171
886.593	8.59259
889.968	10.4749
893.343	12.5501
896.718	5.23083
900.092	8.80926
903.467	1.77161
906.842	2.18408
910.217	0.092529
913.592	3.51221
916.966	0.518799
920.341	2.75891
923.716	0.33844
927.091	0.688904
930.466	0.335815
933.841	9.94934
937.215	1.27673
940.59	6.5354
943.965	14.8462
947.34	7.17102
950.715	9.49426
954.09	6.88403
957.464	4.75134
960.839	12.9598
964.214	15.0485
967.589	20.0222
970.963	9.47461
974.338	7.97058
977.713	11.5979
981.088	12.7183
984.463	4.03686
987.838	6.73035
991.212	6.68579
994.587	0.796631
997.962	9.51123
1001.34	13.3874
1004.71	8.06457
1008.09	11.5652
1011.46	9.97693
1014.84	9.77747
1018.21	8.36011
1021.59	9.62683
1024.96	17.3093
1028.34	11.3918
1031.71	4.78552
1035.09	13.1411
1038.46	14.1305
1041.84	19.7041
1045.21	10.1188
1048.58	5.30335
1051.96	5.02332
1055.33	8.15698
1058.71	20.2532
1062.08	11.7186
1065.46	4.63184
1068.83	12.6962
1072.21	12.0062
1075.58	10.1
1078.96	9.22546
1082.33	10.333
1085.71	8.63611
1089.08	4.51953
1092.46	11.4862
1095.83	7.63025
1099.21	2.65295
1102.58	9.57581
1105.96	8.31201
1109.33	9.29077
1112.71	11.2386
1116.08	1.56042
1119.45	1.71728
1122.83	1.33057
1126.2	3.55469
1129.58	11.0502
1132.95	0.730835
1136.33	7.90576
1139.7	5.66577
1143.08	9.91394
1146.45	10.6522
1149.83	3.42163
1153.2	0.059448
1156.58	3.27319
1159.95	11.2658
1163.33	16.4748
1166.7	10.0194
1170.08	12.4917
1173.45	7.7207
1176.83	12.1648
1180.2	14.958
1183.58	4.48047
1186.95	7.71008
1190.33	12.8635
1193.7	15.5454
1197.08	15.1759
1200.45	15.2293
1203.83	15.3208
1207.2	4.23144
1210.58	20.3247
1213.95	7.90393
1217.33	18.1083
1220.7	14.4064
1224.08	5.70898
1227.45	1.47058
1230.82	1.59192
1234.2	7.91589
1237.57	19.5957
1240.95	7.42017
1244.32	8.6615
1247.7	12.5398
1251.07	6.65247
1254.45	7.91467
1257.82	6.80884
1261.2	6.55554
1264.57	12.9095
1267.95	12.0911
1271.32	7.49793
1274.7	8.33691
1278.07	15.6174
1281.45	2.65576
1284.82	1.42786
