Measurement: Raman, 532 nm, unoriented, Raman Data Processed
Mineral: Kingite
Rruff sample: R060997
Ideal chemistry: Al_3_(PO_4_)_2_F_2_(OH)7H_2_O
Locality: Clinton, South Australia
Source: Bob Jenkins
Description: White consolidated micron-sized laths
Raman shift (cm-1)	intensity
149.486	0
152.379	239.664
155.271	117.125
158.164	946.492
161.057	3121.42
163.949	4493.8
166.842	4821.53
169.735	4102.62
172.627	3732.18
175.52	3862.8
178.413	4836.66
181.305	5548.61
184.198	6189.41
187.091	7252.39
189.983	6915.19
192.876	6180.12
195.769	5278.62
198.662	4533.64
201.554	4583.83
204.447	4696.08
207.34	5149.67
210.232	4664.94
213.125	4012.67
216.018	4157.52
218.911	4286.23
221.803	3986
224.696	3058.88
227.589	2967.7
230.481	2848.73
233.374	2749.36
236.267	2166.81
239.159	2071.38
242.052	2013.5
244.945	2508.89
247.838	2671.83
250.73	2123.05
253.623	1238.84
256.516	1329.38
259.408	1189.89
262.301	1750.41
265.194	1708.81
268.086	1110.69
270.979	767.141
273.872	354.891
276.764	859.297
279.657	1129.47
282.55	1435.88
285.442	1269.41
288.335	496.688
291.228	972.031
294.121	29.6719
297.013	40
299.906	387.281
302.799	680.859
305.691	1759.23
308.584	1305.69
311.477	905.703
314.37	238.891
317.262	182.5
320.155	271.859
323.048	345.984
325.94	1047.25
328.833	1333.36
331.726	1264.95
334.618	1023.72
337.511	698.922
340.404	1076.3
343.296	302.297
346.189	18.9531
349.082	305.516
351.975	1105.88
354.867	1277.94
357.76	637.562
360.653	118.562
363.545	467.453
366.438	391.703
369.331	234.078
372.224	125.297
375.116	484.078
378.009	628.891
380.902	354.078
383.794	106.609
386.687	778.266
389.58	1745.22
392.472	1495.56
395.365	649.625
398.258	409.344
401.151	728.078
404.043	592.219
406.936	602.562
409.829	1304.92
412.721	1113.8
415.614	1838.55
418.507	2062.56
421.399	1884.91
424.292	1260.86
427.185	470.094
430.077	474.109
432.97	537.094
435.863	348.219
438.755	250.109
441.648	217.094
444.541	769.375
447.434	368.578
450.326	128.25
453.219	247.297
456.112	313.016
459.004	503.516
461.897	356.281
464.79	322.719
467.683	962.047
470.575	1963.59
473.468	1967.58
476.361	1668.28
479.253	1498.92
482.146	1983.25
485.039	3243.58
487.931	3420
490.824	2104.73
493.717	1328.34
496.61	593.734
499.502	6.125
502.395	237.625
505.288	587.344
508.18	484.547
511.073	249.234
513.966	318.656
516.858	861.469
519.751	1485.77
522.644	1587.03
525.536	1196.91
528.429	1040.05
531.322	486.562
534.215	197.812
537.107	149.734
540	44.4844
542.893	788.781
545.785	1172.23
548.678	1269.48
551.571	713.328
554.463	991
557.356	215.125
560.249	42.1719
563.141	511.547
566.034	946.172
568.927	1417.61
571.82	845.297
574.712	843.5
577.605	441.641
580.498	33.6875
583.39	452.781
586.283	1012.41
589.176	1366.91
592.068	1199.84
594.961	1674.47
597.854	1871.75
600.747	2633.5
603.639	3453.44
606.532	4192.22
609.425	4901.97
612.317	5492.38
615.21	5759.28
618.103	5552.5
620.995	6598.97
623.888	7302.03
626.781	6500.5
629.673	6016.84
632.566	4909.12
635.459	4241.94
638.352	3532.03
641.244	3193.94
644.137	2960.09
647.03	2941.34
649.922	4294.44
652.815	4512.81
655.708	3711.31
658.601	3688.25
661.493	2982.81
664.386	2021.88
667.279	1988.88
670.171	2915.53
673.064	1802.72
675.957	484.906
678.849	414.781
681.742	1042.94
684.635	1613.84
687.528	1634.16
690.42	1312.53
693.313	1849.09
696.206	1706.81
699.098	714.188
701.991	70.875
704.884	118.062
707.776	346.469
710.669	316.75
713.562	838.656
716.455	416.094
719.347	89.8438
722.24	899.906
725.133	511.406
728.025	462.656
730.918	863.312
733.811	320.562
736.703	714.844
739.596	711.438
742.489	609.094
745.381	2151.69
748.274	4041.81
751.167	2093.62
754.059	1578.56
756.952	1824
759.845	1034.47
762.738	744.344
765.63	1106.5
768.523	2398.66
771.416	3358.91
774.308	3316.06
777.201	2999.34
780.094	3009.69
782.986	4020.09
785.879	3953.69
788.772	4790.59
791.665	5664.47
794.557	6714
797.45	6371.66
800.343	6838.03
803.235	6789.94
806.128	7154.75
809.021	7595.62
811.913	7550.66
814.806	8168.66
817.699	9040.94
820.592	8558.91
823.484	8995.75
826.377	9557.06
829.27	11037.6
832.162	10029.6
835.055	9171.44
837.948	8749.16
840.841	7524.94
843.733	6666.78
846.626	5310.47
849.519	3356.06
852.411	1504.91
855.304	925.281
858.197	758.781
861.089	1638.34
863.982	1617.75
866.875	761.625
869.767	230.875
872.66	322.562
875.553	245.875
878.446	739.594
881.338	592.469
884.231	641.719
887.124	1799.5
890.016	1974.53
892.909	3046.03
895.802	3954.78
898.694	3344
901.587	1826.56
904.48	1233.31
907.372	1091.59
910.265	1015.38
913.158	548.344
916.051	651.656
918.943	49.25
921.836	1825.34
924.729	2709.22
927.621	3556.31
930.514	3191.97
933.407	2032.19
936.299	1603.38
939.192	1923.69
942.085	1430.12
944.977	638.281
947.87	171.656
950.763	83.9688
953.656	233.438
956.548	437.469
959.441	686.312
962.334	637.75
965.226	988
968.119	340.156
971.012	358.688
973.904	453.188
976.797	1757.84
979.69	1420.62
982.583	1400.5
985.475	858.156
988.368	552.812
991.261	1372.66
994.153	1038.44
997.046	2118.75
999.939	2890.66
1002.83	3996.16
1005.72	4352.84
1008.62	3789.66
1011.51	3983.56
1014.4	4103.78
1017.29	3090.19
1020.19	3481.88
1023.08	3082.31
1025.97	3438.72
1028.87	3073.16
1031.76	2523.62
1034.65	1431.69
1037.54	2672.94
1040.44	2531.34
1043.33	2258.59
1046.22	1299.09
1049.12	1162.31
1052.01	1820.38
1054.9	2904.91
1057.79	3138.09
1060.68	2864.78
1063.58	597.281
1066.47	442.906
1069.36	144.844
1072.26	1575.5
1075.15	1559.06
1078.04	31.125
1080.93	320.781
1083.83	174.062
1086.72	1739.25
1089.61	1794.44
1092.51	2171.12
1095.4	2728.84
1098.29	3168.56
1101.18	3530.34
1104.08	3072.5
1106.97	2793.81
1109.86	2332.41
1112.75	997.531
1115.65	1272.91
1118.54	742.938
1121.43	74.1562
1124.33	467.219
1127.22	1691
1130.11	3790.56
1133	3593.28
1135.9	2530.81
1138.79	1681.94
1141.68	2182.22
1144.57	1257.69
1147.47	874.125
1150.36	836.531
1153.25	1593.72
1156.14	2767.34
1159.04	2379.44
1161.93	1981.34
1164.82	501.969
1167.71	144.906
1170.61	355.469
1173.5	2061.84
1176.39	2552.28
1179.29	2872.81
1182.18	2802.72
1185.07	3611.03
1187.96	2031.84
1190.86	1231.78
1193.75	857.625
1196.64	762.906
1199.54	386.438
1202.43	314.719
1205.32	772.375
1208.21	1105.91
1211.11	2157.38
1214	2111
1216.89	1674.06
1219.78	783.312
1222.68	364.531
1225.57	1423.5
1228.46	1736.06
1231.36	1722.69
1234.25	2271.03
1237.14	3248.72
1240.03	2545.12
1242.92	3141.28
1245.82	3287.16
1248.71	4180.03
1251.6	3111.53
1254.5	1407.94
1257.39	2311.28
1260.28	2238.06
1263.17	790.75
1266.07	303.406
1268.96	2035.56
1271.85	5274.5
1274.74	5285.41
1277.64	4478.81
1280.53	1740.62
1283.42	1929.41
1286.32	1755.56
1289.21	2027.59
1292.1	60
