Measurement: Raman, 780 nm, unoriented, Raman Data Processed
Mineral: Kinoite
Rruff sample: R050168
Ideal chemistry: Ca_2_Cu^2+^_2_Si_3_O_10_2H_2_O
Locality: Christmas mine, Christmas, Gila County, Arizona, USA
Source: Marcus Origlieri
Description: Blue tabular crystals associated with hydroxyapophyllite, R050169
Measured chemistry: Ca_2.00_Cu_2.00_Si_3.00_O_10_Â·2.94H_2_O; trace amounts of Fe and Mn; H_2_O estimated by difference
Raman shift (cm-1)	intensity
169.159	0
172.052	0.242537
174.945	0.093422
177.837	0.633612
180.73	0.744583
183.623	0.604609
186.515	0.393219
189.408	0.094475
192.301	0.163111
195.193	0.037342
198.086	0.082085
200.979	0.533173
203.871	1.0705
206.764	1.75691
209.657	2.61684
212.55	3.05046
215.442	3.22349
218.335	3.68708
221.228	3.93476
224.12	3.43914
227.013	2.93995
229.906	2.3833
232.798	2.32614
235.691	1.92252
238.584	2.28692
241.477	2.19499
244.369	2.18057
247.262	2.005
250.155	1.41701
253.047	1.69058
255.94	1.02673
258.833	1.01524
261.726	0.812563
264.618	0.725645
267.511	0.861921
270.404	1.40343
273.296	1.61075
276.189	2.46795
279.082	3.27526
281.974	3.58548
284.867	5.26115
287.76	5.92071
290.652	6.70194
293.545	7.59006
296.438	7.2954
299.331	6.9475
302.223	6.4241
305.116	5.47326
308.009	4.81179
310.901	4.04512
313.794	3.58017
316.687	3.94319
319.579	3.22589
322.472	3.04637
325.365	3.13724
328.258	3.12407
331.15	2.76903
334.043	2.37792
336.936	2.06379
339.828	1.99461
342.721	1.45874
345.614	1.35453
348.507	0.879152
351.399	0.209034
354.292	0.177994
357.185	0.091665
360.077	0.240419
362.97	0.303196
365.863	0.188324
368.755	0.200377
371.648	0.054825
374.541	0.256727
377.433	0.111593
380.326	0.359953
383.219	0.483843
386.112	0.636734
389.004	0.53964
391.897	0.03322
394.79	0.217062
397.682	0.176538
400.575	0.187799
403.468	0.019884
406.36	0.243759
409.253	0.333344
412.146	0.308558
415.038	0.614767
417.931	0.727261
420.824	0.30662
423.717	0.535439
426.609	0.268988
429.502	0.4811
432.395	0.815508
435.287	0.794119
438.18	0.765324
441.073	1.12817
443.966	1.09937
446.858	1.12388
449.751	1.42683
452.644	1.74725
455.536	1.44246
458.429	1.82874
461.322	2.00572
464.214	2.56464
467.107	2.8527
470	3.60003
472.892	4.15231
475.785	4.36521
478.678	4.21211
481.571	4.0003
484.463	3.34097
487.356	2.62253
490.249	1.99862
493.141	1.19215
496.034	0.840034
498.927	0.5235
501.82	0.292461
504.712	0.082909
507.605	0.124863
510.498	0.280848
513.39	0.526829
516.283	0.577518
519.176	0.759674
522.068	1.22694
524.961	1.55641
527.854	1.32003
530.746	1.2875
533.639	1.20231
536.532	1.17493
539.425	0.584192
542.317	0.528612
545.21	0.121021
548.103	0.105896
550.995	0.044096
553.888	0.151989
556.781	0.032143
559.673	0.023315
562.566	0.182171
565.459	0.198645
568.352	0.206594
571.244	0.055779
574.137	0.286024
577.03	0.306326
579.922	0.044964
582.815	0.191896
585.708	0.112728
588.601	0.242165
591.493	0.279472
594.386	0.404795
597.279	0.222181
600.171	0.436956
603.064	0.513885
605.957	0.648424
608.849	0.3883
611.742	0.90012
614.635	0.850311
617.528	1.22189
620.42	1.56115
623.313	1.74072
626.206	2.35135
629.098	2.60743
631.991	2.89558
634.884	3.02355
637.776	2.67794
640.669	2.37738
643.562	1.99635
646.455	1.64012
649.347	1.3012
652.24	0.950663
655.133	0.750908
658.025	0.711168
660.918	0.581825
663.811	0.381247
666.703	0.56509
669.596	0.508678
672.489	0.13628
675.381	0.170195
678.274	0.359564
681.167	0.080219
684.06	0.185535
686.952	0.060509
689.845	0.027817
692.738	0.006943
695.63	0.019413
698.523	0.053452
701.416	0.060253
704.308	0.000298
707.201	0.002439
710.094	0.07373
712.987	0.120995
715.879	0.217989
718.772	0.116615
721.665	0.056786
724.557	0.054239
727.45	0.408564
730.343	0.14958
733.236	0.399931
736.128	0.57139
739.021	0.511877
741.914	0.8913
744.806	0.730717
747.699	0.994301
750.592	0.902023
753.484	1.04164
756.377	0.918644
759.27	1.15631
762.163	0.940466
765.055	0.703718
767.948	0.401247
770.841	0.478809
773.733	0.422039
776.626	0.347727
779.519	0.154507
782.411	0.421028
785.304	0.550245
788.197	0.146269
791.09	0.30917
793.982	0.29101
796.875	0.499178
799.768	0.519409
802.66	0.787567
805.553	0.959496
808.446	1.14397
811.338	1.14524
814.231	1.44243
817.124	1.96048
820.016	2.36779
822.909	2.74101
825.802	3.41752
828.695	4.09216
831.587	4.66729
834.48	5.0217
837.373	4.86222
840.265	4.96671
843.158	4.6517
846.051	4.27413
848.943	3.9022
851.836	3.46924
854.729	3.29547
857.622	2.83695
860.514	2.52134
863.407	2.41405
866.3	2.18366
869.192	2.23933
872.085	1.89007
874.978	1.75883
877.87	1.43376
880.763	1.17553
883.656	1.04845
886.549	0.993746
889.441	0.626431
892.334	0.782019
895.227	0.388626
898.119	0.159538
901.012	0.138794
903.905	0.310339
906.798	0.243271
909.69	0.08427
912.583	0.1049
915.476	0.026337
918.368	0.014444
921.261	0.247223
924.154	0.048197
927.046	0.370312
929.939	0.580648
932.832	1.14677
935.725	1.4631
938.617	1.62034
941.51	2.37342
944.403	2.22
947.295	2.58173
950.188	1.90154
953.081	1.19712
955.973	0.903952
958.866	0.504505
961.759	0.174591
964.651	0.328096
967.544	0.008528
970.437	0.085957
973.33	0.055029
976.222	0.578957
979.115	0.10816
982.008	0.68104
984.9	0.760199
987.793	1.34695
990.686	1.46266
993.578	1.37691
996.471	1.35288
999.364	1.15161
1002.26	0.685209
1005.15	0.581823
1008.04	0.407297
1010.93	0.246281
1013.83	0.047165
1016.72	0.07122
1019.61	0.138784
1022.5	0.407654
1025.4	0.110743
1028.29	0.581177
1031.18	0.723372
1034.08	0.600481
1036.97	0.373816
1039.86	0.482754
1042.75	0.617411
1045.65	0.766876
1048.54	0.613612
1051.43	0.534794
1054.33	0.322514
1057.22	0.418393
1060.11	0.224469
1063	0.105981
1065.9	0.110137
1068.79	0.179429
1071.68	0.069518
1074.57	0.198961
1077.47	0.199283
1080.36	0.066486
1083.25	0.083587
1086.14	0.042951
1089.04	0.120702
1091.93	0.317825
1094.82	0.011117
1097.72	0.074039
1100.61	0.112649
1103.5	0.188004
1106.39	0.277615
1109.29	0.11557
1112.18	0.352597
1115.07	0.101131
1117.96	0.008919
1120.86	0.279666
1123.75	0.153
1126.64	0.163787
1129.54	0.215556
1132.43	0.125985
1135.32	0.073731
1138.21	0.28743
1141.11	0.524982
1144	0.397104
1146.89	0.315704
1149.78	0.221709
1152.68	0.171516
1155.57	0.129736
1158.46	0.213006
1161.36	0.406618
1164.25	0.459774
1167.14	0.116806
1170.03	0.193808
1172.93	0.457898
1175.82	0.466249
1178.71	0.238108
1181.6	0.285351
1184.5	0.462658
1187.39	0.106121
1190.28	0.111609
1193.17	0.285799
1196.07	0.062035
1198.96	0.424722
1201.85	0.376204
1204.74	0.35656
1207.64	0.050838
1210.53	0.255456
1213.42	0.306644
1216.32	0.183115
1219.21	0.106012
1222.1	0.13787
1224.99	0.254189
1227.89	0.14667
1230.78	0.017965
1233.67	0.200063
1236.57	0.410576
1239.46	0.255445
1242.35	0.044379
1245.24	0.083448
1248.14	0.26555
1251.03	0.074403
1253.92	0.430855
1256.81	0.379481
1259.71	0.301642
1262.6	0.256641
1265.49	0.109234
1268.38	0.200891
1271.28	0.327462
1274.17	0.099322
1277.06	0.090721
1279.96	0.306746
1282.85	0.171913
1285.74	0.120601
