Measurement: Raman, 780 nm, unoriented, Raman Data Processed
Mineral: Klyuchevskite
Rruff sample: R070659
Ideal chemistry: K_3_Cu^2+^_3_Fe^3+^O_2_(S^6+^O_4_)_4_
Locality: Yadevitaya fumarole, Tolbachik volcano, Kamchatka Oblast', Far-Eastern Region, Russia
Source: Michael Scott
Description: Clusters of dark green radiating prismatic crystals associated with langbeinite, co-type sample
Raman shift (cm-1)	intensity
95.2076	0
98.5824	93.1135
101.957	70.6488
105.332	60.5278
108.707	76.1506
112.082	82.5164
115.457	88.5986
118.831	166.31
122.206	72.1642
125.581	54.4901
128.956	18.517
132.331	12.3943
135.705	12.278
139.08	99.3217
142.455	76.9969
145.83	92.5391
149.205	176.952
152.579	110.537
155.954	74.4225
159.329	97.589
162.704	115.721
166.079	81.4905
169.454	95.3068
172.828	40.6067
176.203	22.0196
179.578	88.191
182.953	97.3448
186.328	125.382
189.702	79.5702
193.077	82.1517
196.452	96.1719
199.827	23.351
203.202	10.8945
206.577	110.351
209.951	92.0371
213.326	104.128
216.701	102.928
220.076	75.3202
223.451	124.816
226.826	139.668
230.2	120.828
233.575	5.65308
236.95	121.421
240.325	111.483
243.7	127.446
247.074	50.7458
250.449	71.2583
253.824	31.6714
257.199	35.0525
260.574	97.3267
263.949	71.5759
267.323	61.801
270.698	89.6915
274.073	34.4552
277.448	111.433
280.823	97.7255
284.197	95.4823
287.572	129.176
290.947	139.273
294.322	131.492
297.697	118.846
301.072	58.4681
304.446	37.4846
307.821	67.4149
311.196	5.39624
314.571	151.745
317.946	63.5486
321.32	111.875
324.695	78.5704
328.07	135.127
331.445	158.674
334.82	143.8
338.195	167.426
341.569	106.599
344.944	136.287
348.319	144.076
351.694	76.5364
355.069	58.686
358.443	77.3502
361.818	108.391
365.193	110.349
368.568	85.1714
371.943	104.246
375.317	72.566
378.692	120.135
382.067	100.935
385.442	75.6094
388.817	68.0286
392.192	12.5553
395.566	36.9752
398.941	32.2306
402.316	57.9259
405.691	77.0433
409.066	38.9232
412.44	8.00488
415.815	15.1378
419.19	77.0577
422.565	136.968
425.94	25.6968
429.315	23.5079
432.689	85.0092
436.064	143.566
439.439	128.28
442.814	150.94
446.189	120.875
449.563	183.915
452.938	58.529
456.313	65.537
459.688	0.115723
463.063	79.5406
466.438	6.45203
469.812	37.249
473.187	3.08789
476.562	30.5536
479.937	39.2993
483.312	78.5825
486.687	8.37317
490.061	91.7579
493.436	29.5729
496.811	52.2932
500.186	24.5859
503.561	50.8345
506.935	80.4692
510.31	61.1437
513.685	47.5329
517.06	63.5477
520.435	4.17651
523.809	78.7513
527.184	40.8509
530.559	110.695
533.934	80.177
537.309	38.8044
540.684	9.24377
544.058	12.0313
547.433	93.5267
550.808	110.905
554.183	37.664
557.558	27.9728
560.933	7.54315
564.307	71.7828
567.682	79.7775
571.057	73.1648
574.432	27.101
577.807	27.8098
581.181	9.5141
584.556	70.9813
587.931	30.6823
591.306	78.0466
594.681	81.8783
598.056	26.522
601.43	62.0924
604.805	79.8026
608.18	87.395
611.555	66.824
614.93	71.0399
618.304	75.03
621.679	35.2617
625.054	76.0948
628.429	98.8528
631.804	46.9899
635.178	35.923
638.553	10.6599
641.928	32.4762
645.303	10.1314
648.678	13.0621
652.053	58.0884
655.427	79.2543
658.802	73.1305
662.177	60.4441
665.552	41.9858
668.927	51.206
672.302	84.4965
675.676	46.8768
679.051	62.7759
682.426	82.2989
685.801	8.78516
689.176	42.4639
692.55	44.0338
695.925	32.3279
699.3	60.66
702.675	72.6224
706.05	62.1687
709.424	34.3444
712.799	43.0426
716.174	4.09582
719.549	52.7113
722.924	27.7802
726.299	51.7039
729.673	101.477
733.048	67.1243
736.423	65.4556
739.798	13.8919
743.173	20.42
746.548	33.0558
749.922	48.2184
753.297	56.9368
756.672	78.204
760.047	20.12
763.422	56.8654
766.796	18.0882
770.171	51.3212
773.546	51.1006
776.921	56.2682
780.296	31.0802
783.67	63.5026
787.045	75.0421
790.42	69.672
793.795	49.6354
797.17	57.5567
800.545	41.1228
803.919	77.5959
807.294	14.5859
810.669	42.8196
814.044	22.1755
817.419	4.43665
820.793	47.0272
824.168	71.2325
827.543	39.8677
830.918	53.4113
834.293	21.8155
837.668	83.7952
841.042	42.2631
844.417	82.9244
847.792	98.7794
851.167	53.5567
854.542	86.9169
857.917	55.7251
861.291	77.0666
864.666	92.3351
868.041	47.9605
871.416	73.0701
874.791	80.9288
878.165	1.76407
881.54	42.3516
884.915	7.38647
888.29	72.6925
891.665	28.2085
895.039	26.4906
898.414	58.0931
901.789	7.46274
905.164	50.081
908.539	53.6094
911.914	1.65527
915.288	7.8205
918.663	23.1415
922.038	51.6874
925.413	27.9636
928.788	11.5039
932.163	26.9232
935.537	2.80304
938.912	53.1882
942.287	13.505
945.662	83.3637
949.037	9.94839
952.411	81.5199
955.786	61.9984
959.161	151.414
962.536	228.137
965.911	227.192
969.285	326.579
972.66	257.436
976.035	192.022
979.41	95.3595
982.785	93.429
986.159	115.624
989.534	93.882
992.909	107.213
996.284	30.4745
999.659	47.1096
1003.03	62.7843
1006.41	51.1563
1009.78	53.43
1013.16	35.1745
1016.53	3.70102
1019.91	2.71179
1023.28	22.2812
1026.66	65.4322
1030.03	60.509
1033.41	65.1011
1036.78	38.6146
1040.16	57.5397
1043.53	19.9342
1046.91	49.7024
1050.28	9.64468
1053.66	53.075
1057.03	39.7913
1060.41	31.44
1063.78	51.6429
1067.15	61.7629
1070.53	72.2488
1073.9	6.72553
1077.28	63.2335
1080.65	62.0181
1084.03	68.5582
1087.4	59.5853
1090.78	85.9142
1094.15	22.4379
1097.53	40.5035
1100.9	6.69189
1104.28	66.8539
1107.65	34.773
1111.03	13.1314
1114.4	27.5992
1117.78	14.949
1121.15	71.007
1124.53	35.1005
1127.9	45.1805
1131.28	7.98126
1134.65	21.5086
1138.03	64.2169
1141.4	14.8458
1144.78	59.096
1148.15	48.6689
1151.53	56.4367
1154.9	0.654541
1158.28	38.718
1161.65	81.1448
1165.03	27.498
1168.4	67.488
1171.78	21.5517
1175.15	22.4645
1178.52	11.526
1181.9	26.548
1185.27	24.3356
1188.65	50.0983
1192.02	69.2393
1195.4	38.4907
1198.77	14.1885
1202.15	63.0553
1205.52	43.8375
1208.9	30.0253
1212.27	3.81653
1215.65	57.3484
1219.02	68.1809
1222.4	60.0607
1225.77	48.2717
1229.15	101.107
1232.52	90.4779
1235.9	63.2754
1239.27	67.1942
1242.65	89.7031
1246.02	55.9165
1249.39	84.8535
1252.77	6.7771
1256.14	32.4016
1259.52	51.8519
1262.89	49.7673
1266.27	40.3016
1269.64	61.8375
1273.02	8.71265
1276.39	52.0449
1279.77	61.2434
1283.14	80.653
1286.52	115.904
1289.89	60.6658
