Measurement: Raman, 780 nm, unoriented, Raman Data Processed
Mineral: Kobellite
Rruff sample: R070669
Ideal chemistry: Pb^2+^_11_(Cu^1+^,Fe^2+^)_2_(Bi^3+^,Sb^3+^)_15_S^2-^_35_
Locality: Jedlovec (Fichtenhubel) deposit, Smolník ore belt, Slovenske Rudohorie Mts, Koický Kraj, Slovak Republic
Source: Michael Scott
Description: Steel gray metallic massive associated with chalcopyrite and siderite
Measured chemistry: (Pb_9.66_Ag_0.25_Bi_0.94_)_Σ=10.85_(Cu_1.40_Fe_0.61_)_Σ=2.01_(Sb_7.71_Bi_7.29_)_Σ=15.00_S_35_
Raman shift (cm-1)	intensity
108.707	0
112.082	2.76086
115.457	65.0111
118.831	35.78
122.206	35.9938
125.581	54.3158
128.956	63.4969
132.331	38.6879
135.705	59.9033
139.08	61.86
142.455	22.3888
145.83	26.2263
149.205	17.8663
152.579	4.35352
155.954	28.2677
159.329	7.46155
162.704	14.0266
166.079	45.3483
169.454	40.5604
172.828	13.559
176.203	18.9238
179.578	29.7782
182.953	64.7373
186.328	25.1588
189.702	20.8549
193.077	36.9844
196.452	49.7201
199.827	48.5961
203.202	46.9399
206.577	29.0633
209.951	46.1694
213.326	73.2919
216.701	35.8527
220.076	30.2935
223.451	26.6981
226.826	81.3635
230.2	65.2939
233.575	104.416
236.95	62.984
240.325	108.406
243.7	95.7058
247.074	143.278
250.449	137.553
253.824	124.7
257.199	163.333
260.574	122.658
263.949	172.519
267.323	181.99
270.698	143.676
274.073	152.543
277.448	127.114
280.823	163.831
284.197	144.195
287.572	99.943
290.947	84.4713
294.322	58.2255
297.697	56.9971
301.072	76.2284
304.446	61.0809
307.821	51.0607
311.196	72.8906
314.571	44.7354
317.946	121.035
321.32	106.521
324.695	110.593
328.07	94.3364
331.445	62.0532
334.82	44.3676
338.195	13.1305
341.569	15.0124
344.944	18.273
348.319	11.5622
351.694	3.94672
355.069	23.3572
358.443	16.2225
361.818	35.0601
365.193	2.10895
368.568	20.4456
371.943	10.6977
375.317	32.2035
378.692	66.9472
382.067	37.0163
385.442	36.6224
388.817	30.8285
392.192	76.9884
395.566	63.9275
398.941	38.7026
402.316	58.3569
405.691	36.6539
409.066	61.9049
412.44	22.8618
415.815	22.6665
419.19	35.6894
422.565	42.6586
425.94	46.6412
429.315	25.9497
432.689	43.2412
436.064	56.1381
439.439	36.9071
442.814	5.65717
446.189	12.8324
449.563	16.8835
452.938	34.663
456.313	38.7363
459.688	24.751
463.063	39.7521
466.438	33.423
469.812	25.1411
473.187	3.75812
476.562	30.7773
479.937	12.8751
483.312	27.1588
486.687	36.2856
490.061	17.1236
493.436	20.5654
496.811	18.5396
500.186	4.52756
503.561	24.9472
506.935	29.0134
510.31	38.5853
513.685	25.4745
517.06	14.6338
520.435	29.9367
523.809	19.9606
527.184	24.743
530.559	39.4538
533.934	0.825317
537.309	3.12598
540.684	9.31808
544.058	30.5268
547.433	35.2853
550.808	36.2651
554.183	2.68594
557.558	36.6526
560.933	22.8596
564.307	7.17697
567.682	44.4566
571.057	0.431061
574.432	10.7732
577.807	10.1945
581.181	2.41565
584.556	41.4344
587.931	40.7012
591.306	16.9012
594.681	13.0851
598.056	17.7497
601.43	47.0362
604.805	26.4151
608.18	16.1726
611.555	44.4956
614.93	27.2848
618.304	28.9331
621.679	7.82156
625.054	37.0337
628.429	1.00458
631.804	19.3002
635.178	27.9217
638.553	6.2655
641.928	17.0529
645.303	22.364
648.678	32.066
652.053	35.1539
655.427	18.2307
658.802	9.58102
662.177	10.8522
665.552	15.1685
668.927	18.6948
672.302	42.0679
675.676	29.6267
679.051	9.2915
682.426	12.7816
685.801	12.5217
689.176	19.9812
692.55	5.5304
695.925	19.5129
699.3	7.03534
702.675	31.3557
706.05	11.5553
709.424	16.8745
712.799	2.83456
716.174	17.5407
719.549	31.9208
722.924	2.59878
726.299	15.7339
729.673	19.4638
733.048	4.29608
736.423	24.6927
739.798	3.21509
743.173	13.6729
746.548	0.325562
749.922	33.8757
753.297	23.737
756.672	21.4951
760.047	21.1402
763.422	21.8641
766.796	30.6057
770.171	20.3591
773.546	26.9268
776.921	24.8628
780.296	13.933
783.67	7.23148
787.045	30.1574
790.42	12.3142
793.795	18.7443
797.17	22.5465
800.545	2.83102
803.919	1.79071
807.294	25.1439
810.669	25.7885
814.044	11.8271
817.419	16.7929
820.793	24.0418
824.168	2.30008
827.543	37.0795
830.918	16.8879
834.293	31.4145
837.668	16.0258
841.042	24.1451
844.417	20.6279
847.792	11.8819
851.167	8.77267
854.542	43.9
857.917	37.414
861.291	33.4256
864.666	28.2168
868.041	11.3488
871.416	31.2862
874.791	20.1107
878.165	3.13528
881.54	19.7852
884.915	26.4999
888.29	25.8838
891.665	24.3928
895.039	5.00253
898.414	16.1323
901.789	3.34247
905.164	19.3853
908.539	10.3846
911.914	9.50967
915.288	31.2144
918.663	36.2752
922.038	16.0854
925.413	21.5188
928.788	24.6564
932.163	33.5141
935.537	22.4723
938.912	6.07214
942.287	16.4796
945.662	26.6667
949.037	5.56354
952.411	14.8068
955.786	17.0379
959.161	6.75076
962.536	21.1923
965.911	5.91177
969.285	13.2847
972.66	2.85657
976.035	4.16272
979.41	7.95908
982.785	18.3807
986.159	10.7333
989.534	7.55981
992.909	25.0418
996.284	30.1969
999.659	38.0376
1003.03	4.46457
1006.41	34.0199
1009.78	36.0527
1013.16	5.69543
1016.53	23.795
1019.91	23.0236
1023.28	32.007
1026.66	17.0889
1030.03	26.6252
1033.41	26.3163
1036.78	6.53433
1040.16	29.3111
1043.53	40.4293
1046.91	19.2248
1050.28	2.80673
1053.66	7.20007
1057.03	21.3377
1060.41	31.905
1063.78	18.3468
1067.15	13.1396
1070.53	7.5491
1073.9	4.81253
1077.28	21.9005
1080.65	22.7543
1084.03	28.1241
1087.4	27.8002
1090.78	17.6955
1094.15	43.1297
1097.53	20.113
1100.9	24.8719
1104.28	8.06866
1107.65	7.59741
1111.03	2.84732
1114.4	27.0792
1117.78	22.7209
1121.15	14.37
1124.53	5.60077
1127.9	3.08405
1131.28	9.71884
1134.65	0.760834
1138.03	24.1505
1141.4	18.6303
1144.78	22.175
1148.15	21.6738
1151.53	26.0934
1154.9	16.8354
1158.28	2.12662
1161.65	19.6352
1165.03	40.6473
1168.4	22.7708
1171.78	23.3574
1175.15	25.0194
1178.52	30.5873
1181.9	20.3737
1185.27	23.9469
1188.65	14.3502
1192.02	28.1
1195.4	28.8103
1198.77	17.3823
1202.15	19.3619
1205.52	7.97064
1208.9	42.1682
1212.27	14.7419
1215.65	30.5553
1219.02	9.89179
1222.4	10.1668
1225.77	10.0839
1229.15	8.19748
1232.52	4.57443
1235.9	32.8035
1239.27	29.5557
1242.65	11.7078
1246.02	13.1057
1249.39	17.6883
1252.77	15.1336
1256.14	30.1729
1259.52	25.003
1262.89	13.7331
1266.27	18.0857
1269.64	20.1042
1273.02	0.173798
