Measurement: Raman, 532 nm, unoriented, Raman Data Processed
Mineral: Kobellite
Rruff sample: R070669
Ideal chemistry: Pb^2+^_11_(Cu^1+^,Fe^2+^)_2_(Bi^3+^,Sb^3+^)_15_S^2-^_35_
Locality: Jedlovec (Fichtenhubel) deposit, Smolník ore belt, Slovenske Rudohorie Mts, Koický Kraj, Slovak Republic
Source: Michael Scott
Description: Steel gray metallic massive associated with chalcopyrite and siderite
Measured chemistry: (Pb_9.66_Ag_0.25_Bi_0.94_)_Σ=10.85_(Cu_1.40_Fe_0.61_)_Σ=2.01_(Sb_7.71_Bi_7.29_)_Σ=15.00_S_35_
Raman shift (cm-1)	intensity
128.45	0
131.825	38.1005
135.2	29.3772
138.575	26.7239
141.949	19.2843
145.324	17.4509
148.699	14.7665
152.074	40.2784
155.449	79.9191
158.823	60.4292
162.198	31.8104
165.573	35.3075
168.948	40.1417
172.323	55.9634
175.697	52.9451
179.072	55.6428
182.447	86.9357
185.822	94.3294
189.197	106.917
192.572	79.875
195.946	89.6882
199.321	129.128
202.696	150.888
206.071	156.475
209.446	201.96
212.821	224.695
216.195	221.386
219.57	282.642
222.945	343.173
226.32	312.651
229.695	308.868
233.069	409.266
236.444	459.807
239.819	445.3
243.194	448.64
246.569	461.662
249.944	423.909
253.318	428.685
256.693	378.11
260.068	343.999
263.443	322.966
266.818	239.023
270.192	196.211
273.567	168.529
276.942	153.17
280.317	89.5295
283.692	92.5354
287.067	96.6255
290.441	88.9959
293.816	51.4543
297.191	59.7126
300.566	46.8605
303.94	12.7538
307.315	13.2325
310.69	2.07129
314.065	21.0385
317.44	5.18805
320.815	16.6633
324.189	7.65704
327.564	36.8217
330.939	0.425232
334.314	5.80951
337.689	11.7175
341.063	11.1517
344.438	5.67206
347.813	1.01465
351.188	3.47144
354.563	11.9562
357.938	19.6979
361.312	19.2189
364.687	24.5509
368.062	2.07416
371.437	29.5437
374.812	29.5079
378.187	46.5628
381.561	45.2964
384.936	51.8862
388.311	35.2896
391.686	47.4722
395.06	40.3202
398.435	19.2543
401.81	73.2534
405.185	55.411
408.56	47.236
411.935	29.2981
415.309	30.1993
418.684	45.3996
422.059	32.7439
425.434	45.2411
428.809	19.0207
432.183	37.4728
435.558	39.4472
438.933	31.4853
442.308	10.4872
445.683	43.3944
449.058	26.0997
452.432	41.5342
455.807	14.6641
459.182	24.6461
462.557	36.2068
465.932	2.3815
469.307	27.0506
472.681	24.5127
476.056	32.9992
479.431	11.4745
482.806	16.6267
486.181	44.7953
489.555	18.328
492.93	32.6555
496.305	27.2804
499.68	39.9246
503.055	18.9565
506.43	19.922
509.804	43.0098
513.179	19.3189
516.554	35.2086
519.929	21.5633
523.303	34.2876
526.678	33.0493
530.053	6.27405
533.428	35.0742
536.803	33.2283
540.178	38.1502
543.552	29.0752
546.927	36.2095
550.302	27.5013
553.677	55.4302
557.052	25.0042
560.427	30.6673
563.801	26.585
567.176	2.07639
570.551	11.5346
573.926	2.7955
577.301	15.1294
580.675	33.3415
584.05	32.5819
587.425	21.8189
590.8	36.1635
594.175	19.2321
597.549	41.306
600.924	36.7609
604.299	18.5215
607.674	24.2276
611.049	18.7109
614.424	14.4017
617.798	17.5529
621.173	27.2267
624.548	26.8796
627.923	27.5776
631.298	17.9922
634.673	9.74213
638.047	26.4695
641.422	23.1148
644.797	34.7954
648.172	4.63388
651.547	6.09518
654.921	10.7129
658.296	16.0396
661.671	4.81928
665.046	32.6464
668.421	21.3045
671.795	22.524
675.17	21.4354
678.545	15.2571
681.92	24.2043
685.295	29.433
688.669	16.9705
692.044	22.0215
695.419	10.6109
698.794	13.1077
702.169	19.2256
705.544	15.4824
708.918	36.867
712.293	1.01633
715.668	36.4501
719.043	20.5611
722.418	18.8821
725.793	23.4836
729.167	27.8511
732.542	21.5176
735.917	30.2317
739.292	17.1815
742.667	15.9826
746.041	7.02087
749.416	21.8232
752.791	27.6889
756.166	21.0554
759.541	2.54141
762.915	13.7601
766.29	7.6142
769.665	7.0123
773.04	35.0646
776.415	23.7779
779.79	26.6538
783.164	16.8119
786.539	26.0382
789.914	29.9566
793.289	17.1611
796.664	49.3038
800.038	54.4027
803.413	38.4216
806.788	19.0669
810.163	5.86163
813.538	19.8193
816.913	25.0724
820.287	15.6129
823.662	23.1355
827.037	24.6655
830.412	14.2708
833.787	19.2196
837.161	16.8486
840.536	36.3603
843.911	8.61655
847.286	27.0193
850.661	30.6678
854.035	13.898
857.41	18.0058
860.785	27.0829
864.16	22.0882
867.535	14.4401
870.909	12.8052
874.284	29.1174
877.659	11.2082
881.034	4.71463
884.409	18.6379
887.784	21.3997
891.158	20.2651
894.533	35.9585
897.908	16.5497
901.283	0.919312
904.658	4.09201
908.033	32.1115
911.407	14.6118
914.782	17.6835
918.157	12.8595
921.532	11.9705
924.907	10.7822
928.281	7.59171
931.656	20.6836
935.031	6.95657
938.406	19.8612
941.781	16.2423
945.155	16.8152
948.53	5.08789
951.905	8.63397
955.28	13.8691
958.655	13.1169
962.03	17.8643
965.404	14.7244
968.779	25.3605
972.154	23.3355
975.529	19.7161
978.904	24.109
982.279	25.1763
985.653	22.6972
989.028	5.58957
992.403	4.40649
995.778	1.20019
999.153	5.12744
1002.53	1.54633
1005.9	23.4129
1009.28	1.80322
1012.65	8.88858
1016.03	17.5359
1019.4	2.30673
1022.78	17.5444
1026.15	18.9306
1029.53	15.9113
1032.9	9.83609
1036.28	25.7608
1039.65	32.1399
1043.03	18.5493
1046.4	26.7758
1049.78	2.59973
1053.15	31.4306
1056.52	0.334381
1059.9	0.166199
1063.27	20.083
1066.65	19.4054
1070.02	25.8197
1073.4	6.9733
1076.77	16.347
1080.15	15.7401
1083.52	17.1742
1086.9	18.2291
1090.27	18.4452
1093.65	23.4691
1097.02	0.405151
1100.4	22.1223
1103.77	12.562
1107.15	12.4432
1110.52	26.0134
1113.9	14.1285
1117.27	13.0049
1120.65	17.74
1124.02	20.9409
1127.4	26.7653
1130.77	20.3886
1134.14	0.19696
1137.52	7.9212
1140.89	13.4216
1144.27	15.7541
1147.64	37.144
1151.02	23.5189
1154.39	33.5689
1157.77	31.4126
1161.14	14.8125
1164.52	38.0097
1167.89	18.4615
1171.27	10.1999
1174.64	22.5009
1178.02	11.7784
1181.39	33.7644
1184.77	36.9163
1188.14	30.6279
1191.52	38.0536
1194.89	35.5927
1198.27	24.9761
1201.64	20.7811
1205.02	17.3124
1208.39	17.3558
1211.77	25.9707
1215.14	18.9305
1218.52	23.4012
1221.89	14.5025
1225.27	17.148
1228.64	4.40738
1232.02	7.40683
1235.39	28.2638
1238.76	30.8555
1242.14	10.6142
1245.51	51.8414
1248.89	12.1993
1252.26	25.087
1255.64	33.6401
1259.01	6.19342
1262.39	26.0851
1265.76	27.6001
1269.14	18.4032
1272.51	31.0345
1275.89	20.9318
1279.26	5.47693
1282.64	8.50674
