Measurement: Raman, 532 nm, unoriented, Raman Data Processed
Mineral: Kobellite
Rruff sample: R110092
Ideal chemistry: Pb^2+^_11_(Cu^1+^,Fe^2+^)_2_(Bi^3+^,Sb^3+^)_15_S^2-^_35_
Locality: Crabtree quarry, Wake County, North Carolina, USA
Source: Mark Feinglos
Description: Dark grey metallic massive, associated with quartz
Measured chemistry: (Pb_10.21_Bi_0.63_Ag_0.16_)_Σ=11.00_(Cu_1.64_Fe_0.50_)_Σ=2.14_(Bi_9.41_Sb_5.59_)_Σ=15.00_S_35_
Raman shift (cm-1)	intensity
184.505	0
187.398	0.684967
190.29	2.94298
193.183	0.958199
196.076	1.30089
198.968	4.20208
201.861	5.17507
204.754	5.25997
207.647	3.63434
210.539	4.70373
213.432	4.74082
216.325	4.96466
219.217	4.59426
222.11	8.45922
225.003	5.6647
227.895	8.40015
230.788	8.08845
233.681	5.46414
236.573	7.5136
239.466	7.7492
242.359	8.21234
245.252	8.70997
248.144	9.35987
251.037	7.85965
253.93	8.66974
256.822	8.19703
259.715	9.30656
262.608	7.86974
265.5	6.90759
268.393	7.49108
271.286	6.77527
274.179	8.87485
277.071	6.13316
279.964	5.04142
282.857	5.99673
285.75	5.81782
288.642	3.34744
291.535	4.6338
294.428	3.93862
297.32	5.36216
300.213	4.11748
303.106	5.46401
305.998	5.05409
308.891	5.46048
311.784	5.45342
314.676	6.18428
317.569	4.22012
320.462	5.22786
323.355	6.58429
326.247	4.31612
329.14	4.03408
332.033	4.14066
334.925	1.73218
337.818	1.16288
340.711	0.513441
343.603	1.41802
346.496	1.08376
349.389	0.94796
352.281	0.89072
355.174	0.561213
358.067	0.055807
360.96	1.49412
363.852	1.41267
366.745	2.00793
369.638	1.4377
372.53	1.21472
375.423	0.581647
378.316	2.87549
381.209	0.805229
384.101	1.57957
386.994	3.05662
389.887	3.32323
392.779	2.36257
395.672	2.45896
398.565	3.16164
401.457	3.03769
404.35	3.05813
407.243	1.59968
410.135	2.83643
413.028	1.06742
415.921	1.98425
418.814	1.94026
421.706	0.45293
424.599	1.8835
427.492	1.5938
430.384	1.14051
433.277	1.55086
436.17	1.43988
439.062	1.41346
441.955	0.574563
444.848	1.27387
447.741	4.60567
450.633	0.005999
453.526	2.19747
456.419	2.19485
459.311	1.2058
462.204	2.42021
465.097	2.36426
467.99	0.780244
470.882	2.20587
473.775	1.83392
476.668	0.337063
479.56	0.519967
482.453	1.24035
485.346	1.04143
488.238	1.66363
491.131	0.164192
494.024	1.20259
496.916	1.10915
499.809	0.552484
502.702	0.50232
505.595	1.73189
508.487	2.4245
511.38	0.59204
514.273	2.02885
517.165	0.830349
520.058	2.48769
522.951	0.373933
525.844	2.36217
528.736	2.19572
531.629	1.39609
534.522	1.19124
537.414	1.37906
540.307	2.34823
543.2	1.09054
546.092	1.56693
548.985	1.14347
551.878	2.32948
554.771	0.891284
557.663	1.50137
560.556	2.55552
563.449	1.71093
566.341	2.22303
569.234	2.40817
572.127	2.19662
575.019	1.6844
577.912	0.939474
580.805	1.1724
583.697	0.742028
586.59	0.742528
589.483	0.018908
592.376	2.99534
595.268	1.93925
598.161	0.247994
601.054	0.200872
603.946	2.55244
606.839	1.29977
609.732	2.63506
612.625	2.15539
615.517	1.1497
618.41	0.07787
621.303	1.09042
624.195	2.0757
627.088	1.49245
629.981	0.494335
632.873	1.52191
635.766	1.74944
638.659	1.78558
641.552	1.27028
644.444	1.40318
647.337	0.315658
650.23	0.160716
653.122	0.311024
656.015	1.83524
658.908	0.640523
661.8	1.76059
664.693	2.667
667.586	0.334149
670.479	1.10437
673.371	0.883872
676.264	0.746192
679.157	1.09929
682.049	1.00766
684.942	0.492399
687.835	0.753869
690.727	1.10708
693.62	0.822024
696.513	2.24139
699.405	1.95772
702.298	1.50478
705.191	0.404304
708.084	0.607658
710.976	1.75576
713.869	0.304538
716.762	0.770945
719.654	1.26763
722.547	1.02566
725.44	1.36191
728.332	0.628711
731.225	1.19904
734.118	0.950573
737.011	1.14339
739.903	1.02188
742.796	0.913717
745.689	2.07953
748.581	0.520633
751.474	0.178737
754.367	2.1984
757.26	2.32827
760.152	1.56329
763.045	2.7793
765.938	0.760947
768.83	1.70417
771.723	0.420931
774.616	0.584291
777.508	2.32944
780.401	0.749737
783.294	0.453221
786.187	1.76784
789.079	1.60288
791.972	0.362966
794.865	0.719296
797.757	0.212284
800.65	1.63384
803.543	0.724966
806.435	0.840513
809.328	1.22148
812.221	0.973994
815.114	0.505174
818.006	1.49464
820.899	0.570563
823.792	1.30325
826.684	1.00249
829.577	2.68694
832.47	1.17579
835.362	2.32748
838.255	1.0746
841.148	1.54954
844.04	1.57001
846.933	1.08273
849.826	0.933354
852.719	0.741019
855.611	1.6466
858.504	1.26458
861.397	2.02223
864.289	0.697456
867.182	1.87813
870.075	0.497966
872.967	0.795382
875.86	1.26254
878.753	1.07894
881.646	0.44012
884.538	1.92075
887.431	1.88799
890.324	1.95061
893.216	0.655492
896.109	2.19022
899.002	1.32348
901.894	1.34647
904.787	0.751179
907.68	0.110056
910.573	0.28751
913.465	1.11468
916.358	1.66622
919.251	1.50229
922.143	1.88044
925.036	1.61117
927.929	0.598496
930.822	2.02569
933.714	1.5734
936.607	0.093219
939.5	0.388449
942.392	0.143872
945.285	1.46636
948.178	1.13856
951.07	1.03466
953.963	0.645889
956.856	0.8389
959.749	0.351476
962.641	3.69294
965.534	1.38874
968.427	1.72552
971.319	1.71204
974.212	1.33755
977.105	1.23007
979.997	1.13312
982.89	1.80175
985.783	0.82365
988.676	0.04493
991.568	0.680413
994.461	0.432245
997.354	0.664708
1000.25	0.723441
1003.14	0.689538
1006.03	2.2604
1008.92	1.36281
1011.82	0.978621
1014.71	0.961344
1017.6	2.23086
1020.5	2.0945
1023.39	0.610713
1026.28	0.52278
1029.17	0.930462
1032.07	1.19427
1034.96	0.899095
1037.85	0.481534
1040.74	1.64179
1043.64	0.035193
1046.53	1.18037
1049.42	0.279375
1052.32	1.80793
1055.21	1.50991
1058.1	1.68732
1060.99	0.228122
1063.89	1.36583
1066.78	1.237
1069.67	2.43655
1072.56	1.55556
1075.46	3.46793
1078.35	1.48702
1081.24	0.394556
1084.13	1.66482
1087.03	2.37142
1089.92	0.694903
1092.81	1.73018
1095.7	1.27747
1098.6	1.95312
1101.49	0.998438
1104.38	0.952465
1107.28	0.687268
1110.17	0.719046
1113.06	0.826275
1115.95	1.16478
1118.85	0.009981
1121.74	0.079564
1124.63	1.3634
1127.53	1.90656
1130.42	2.33074
1133.31	2.04152
1136.2	1.10923
1139.1	1.1585
1141.99	2.70556
1144.88	1.42711
1147.77	1.34341
1150.67	0.754061
1153.56	1.51465
1156.45	1.91151
1159.35	1.52101
1162.24	0.924594
1165.13	0.965805
1168.02	0.434355
1170.92	0.094765
1173.81	1.17751
1176.7	1.76936
1179.59	0.672022
1182.49	1.97931
1185.38	0.896425
1188.27	0.882279
1191.16	1.13068
1194.06	0.880985
1196.95	0.616283
1199.84	2.02737
1202.73	1.1929
1205.63	2.73129
1208.52	1.60728
1211.41	0.450173
1214.31	1.92018
1217.2	1.37442
1220.09	0.903873
1222.98	2.27558
1225.88	3.33063
1228.77	1.5909
1231.66	0.120661
1234.56	1.91261
1237.45	0.239066
1240.34	1.37125
1243.23	1.89514
1246.13	1.84518
1249.02	0.354353
1251.91	1.16736
1254.8	2.40937
1257.7	0.633866
1260.59	2.20514
1263.48	1.74435
1266.38	1.98476
1269.27	2.9236
1272.16	2.29763
1275.05	1.69893
1277.95	0.597039
1280.84	2.11411
1283.73	1.42996
1286.62	1.60972
1289.52	0.82189
1292.41	3.46244
1295.3	0.08864
1298.19	1.81554
1301.09	0.664762
