Measurement: Raman, 780 nm, unoriented, Raman Data Processed
Mineral: Kobellite
Rruff sample: R110092
Ideal chemistry: Pb^2+^_11_(Cu^1+^,Fe^2+^)_2_(Bi^3+^,Sb^3+^)_15_S^2-^_35_
Locality: Crabtree quarry, Wake County, North Carolina, USA
Source: Mark Feinglos
Description: Dark grey metallic massive, associated with quartz
Measured chemistry: (Pb_10.21_Bi_0.63_Ag_0.16_)_Σ=11.00_(Cu_1.64_Fe_0.50_)_Σ=2.14_(Bi_9.41_Sb_5.59_)_Σ=15.00_S_35_
Raman shift (cm-1)	intensity
171.635	0
174.528	0.714294
177.42	0.168308
180.313	1.06484
183.206	0.000209
186.098	2.09596
188.991	0.73405
191.884	1.03669
194.776	0.366648
197.669	0.02119
200.562	0.456354
203.455	0.862177
206.347	1.29059
209.24	0.219914
212.133	0.917588
215.025	0.99061
217.918	0.937174
220.811	1.74312
223.703	2.42786
226.596	0.279294
229.489	1.86325
232.382	1.89828
235.274	1.12109
238.167	2.03305
241.06	1.42711
243.952	1.92022
246.845	1.95672
249.738	2.32652
252.631	1.45001
255.523	2.06104
258.416	2.09474
261.309	2.70847
264.201	1.7773
267.094	1.12484
269.987	2.54029
272.879	1.76712
275.772	1.65254
278.665	1.82856
281.558	1.70491
284.45	2.06903
287.343	2.09917
290.236	1.39952
293.128	1.87201
296.021	1.75683
298.914	1.60628
301.806	0.832856
304.699	1.20205
307.592	0.852075
310.485	1.69596
313.377	2.10507
316.27	1.15447
319.163	0.963133
322.055	0.687183
324.948	2.08827
327.841	1.54673
330.733	0.096326
333.626	1.57511
336.519	1.07592
339.411	0.314551
342.304	0.530812
345.197	1.16523
348.09	1.0797
350.982	0.488539
353.875	0.036449
356.768	0.56472
359.66	0.302464
362.553	1.45031
365.446	0.85073
368.339	0.341492
371.231	0.64247
374.124	0.997851
377.017	0.942729
379.909	2.49183
382.802	0.241063
385.695	1.14641
388.587	0.983169
391.48	1.10103
394.373	0.467988
397.265	0.889653
400.158	1.46036
403.051	1.62821
405.944	0.430788
408.836	1.73369
411.729	0.322366
414.622	1.31302
417.514	1.47985
420.407	1.43599
423.3	1.06822
426.192	0.973129
429.085	1.80762
431.978	1.71749
434.871	0.875661
437.763	0.912676
440.656	1.69012
443.549	0.152109
446.441	1.02527
449.334	1.10391
452.227	0.494381
455.12	0.74166
458.012	0.551635
460.905	1.38173
463.798	0.365093
466.69	0.177654
469.583	0.97777
472.476	0.705
475.368	0.577994
478.261	0.821355
481.154	0.18028
484.046	0.377153
486.939	0.903507
489.832	0.725696
492.725	1.49028
495.617	2.03495
498.51	0.92502
501.403	0.44112
504.295	1.73992
507.188	1.48408
510.081	2.04677
512.973	1.1607
515.866	0.840492
518.759	1.19612
521.652	0.614251
524.544	1.20778
527.437	1.10571
530.33	0.942421
533.222	0.275234
536.115	1.10252
539.008	2.30039
541.9	0.575992
544.793	1.71613
547.686	0.592828
550.579	1.72131
553.471	0.693929
556.364	1.43389
559.257	2.01601
562.149	0.900597
565.042	1.82869
567.935	1.86171
570.827	1.23595
573.72	1.1268
576.613	0.647739
579.506	0.861361
582.398	0.527739
585.291	0.815523
588.184	0.406315
591.077	1.84661
593.969	1.63459
596.862	0.264479
599.755	0.04398
602.647	2.38325
605.54	0.286066
608.433	1.50067
611.325	1.70505
614.218	1.03743
617.111	0.096239
620.004	0.410176
622.896	1.59919
625.789	1.21978
628.682	1.27381
631.574	1.62366
634.467	0.365039
637.36	0.891659
640.252	0.72432
643.145	0.866625
646.038	0.57428
648.931	0.546927
651.823	0.514827
654.716	0.608769
657.609	1.3321
660.501	0.903665
663.394	1.25156
666.287	0.90545
669.179	0.068514
672.072	0.979349
674.965	0.449867
677.857	1.823
680.75	1.48825
683.643	0.189917
686.536	0.762772
689.428	0.865203
692.321	0.737731
695.214	0.536934
698.106	0.704105
700.999	0.171617
703.892	0.04192
706.784	0.308005
709.677	0.152099
712.57	0.830569
715.463	1.25451
718.355	0.544488
721.248	0.835215
724.141	1.45921
727.033	0.417201
729.926	0.778175
732.819	1.19044
735.712	1.50261
738.604	0.878466
741.497	2.02683
744.39	0.553713
747.282	0.16333
750.175	1.47089
753.068	1.49434
755.96	0.559822
758.853	2.0615
761.746	0.601947
764.639	1.03338
767.531	0.557057
770.424	0.28008
773.317	1.37494
776.209	0.584674
779.102	0.440343
781.995	0.71599
784.887	1.2588
787.78	0.301054
790.673	0.737357
793.566	0.062838
796.458	1.68726
799.351	0.349112
802.244	0.431102
805.136	1.48859
808.029	1.72587
810.922	0.799659
813.814	0.885556
816.707	0.860539
819.6	1.18115
822.492	1.51664
825.385	2.32695
828.278	0.763846
831.171	1.6518
834.063	0.951056
836.956	1.09779
839.849	1.4704
842.741	1.09293
845.634	1.77611
848.527	1.3052
851.419	1.5069
854.312	1.9284
857.205	1.63968
860.098	1.9782
862.99	0.649506
865.883	0.134865
868.776	0.897966
871.668	0.713678
874.561	1.44932
877.454	1.2729
880.346	1.60251
883.239	1.97736
886.132	0.244315
889.025	0.950618
891.917	1.02456
894.81	0.824345
897.703	1.04971
900.595	0.465365
903.488	0.12811
906.381	1.56026
909.274	1.39724
912.166	1.51646
915.059	1.27022
917.952	0.943081
920.844	0.841808
923.737	1.52812
926.63	1.34539
929.522	0.343468
932.415	0.59985
935.308	0.111302
938.201	1.42321
941.093	2.15855
943.986	0.818001
946.879	1.07463
949.771	0.984592
952.664	0.46595
955.557	2.91989
958.449	0.521123
961.342	1.63483
964.235	1.091
967.128	0.941984
970.02	0.84129
972.913	1.40659
975.806	1.87661
978.698	1.38827
981.591	0.729721
984.484	0.129434
987.376	1.49867
990.269	1.5409
993.162	0.890584
996.054	1.28418
998.947	0.749576
1001.84	1.4649
1004.73	1.55209
1007.62	1.20732
1010.52	2.34945
1013.41	0.207839
1016.3	0.716719
1019.2	1.13266
1022.09	1.13406
1024.98	0.897526
1027.87	0.357881
1030.77	1.63319
1033.66	0.142168
1036.55	1.51035
1039.44	0.712555
1042.34	1.38528
1045.23	1.67173
1048.12	2.092
1051.02	0.237313
1053.91	0.880911
1056.8	1.24896
1059.69	0.448852
1062.59	1.3378
1065.48	1.53989
1068.37	0.848191
1071.27	1.67817
1074.16	1.1522
1077.05	0.311801
1079.94	1.88673
1082.84	1.58188
1085.73	0.472842
1088.62	1.33384
1091.51	2.06901
1094.41	0.625623
1097.3	0.927471
1100.19	1.57075
1103.08	1.59567
1105.98	0.485908
1108.87	0.668815
1111.76	0.903749
1114.65	1.17109
1117.55	1.52108
1120.44	2.34068
1123.33	0.828645
1126.23	0.355575
1129.12	2.20053
1132.01	1.30425
1134.9	1.20791
1137.8	0.880563
1140.69	1.13315
1143.58	0.870475
1146.47	1.78295
1149.37	0.36421
1152.26	0.848991
1155.15	1.15236
1158.05	0.770586
1160.94	1.02719
1163.83	1.50665
1166.72	0.830877
1169.62	1.96924
1172.51	0.867011
1175.4	0.086905
1178.3	1.08468
1181.19	0.621717
1184.08	1.61661
1186.97	1.3829
1189.87	2.19872
1192.76	1.48072
1195.65	0.489269
1198.54	0.005955
1201.44	0.909884
1204.33	0.719193
1207.22	1.77748
1210.11	3.03185
1213.01	0.888357
1215.9	0.362731
1218.79	1.37254
1221.68	0.045476
1224.58	1.10107
1227.47	1.40455
1230.36	1.28248
1233.26	0.037343
1236.15	0.93312
1239.04	1.51283
1241.93	0.57365
1244.83	1.49836
1247.72	1.21035
1250.61	0.922434
1253.51	1.38441
1256.4	0.776453
1259.29	1.08104
1262.18	1.75395
1265.08	0.793711
1267.97	0.942833
1270.86	1.55617
1273.75	1.75234
1276.65	1.38035
1279.54	1.6415
1282.43	0.578731
1285.33	0.001539
