Measurement: Raman, 780 nm, unoriented, Raman Data Processed
Mineral: Kolarite
Rruff sample: R070677
Ideal chemistry: PbTeCl_2_
Locality: Oktyabr'sky Mine, Noril'sk, Putoran Mts, Taymyrskiy Autonomous Okrug, Eastern-Siberian Region, Russia
Source: Michael Scott
Description: Steel gray metallic massive polished fragment embedded in epoxy
Raman shift (cm-1)	intensity
133.295	0
136.188	12.2859
139.08	42.2147
141.973	34.7941
144.866	11.2296
147.758	7.29089
150.651	16.6977
153.544	21.4889
156.436	23.4465
159.329	3.27014
162.222	35.9429
165.114	45.9493
168.007	26.6869
170.9	60.3771
173.793	58.8669
176.685	63.4815
179.578	85.7455
182.471	68.6633
185.363	121.392
188.256	137.719
191.149	183.63
194.042	125.287
196.934	171.011
199.827	136.861
202.72	135.909
205.612	141.108
208.505	157.41
211.398	129.768
214.291	156.604
217.183	170.606
220.076	162.661
222.969	189.627
225.861	196.929
228.754	215.021
231.647	220.285
234.539	211.799
237.432	214.63
240.325	192.128
243.218	168.422
246.11	158.447
249.003	126.234
251.896	87.7587
254.788	51.9949
257.681	44.1941
260.574	46.2804
263.466	30.6589
266.359	7.70252
269.252	19.9711
272.144	4.70489
275.037	31.3066
277.93	16.5148
280.823	5.04453
283.715	32.4862
286.608	22.551
289.501	3.2626
292.393	16.5668
295.286	31.3463
298.179	39.289
301.072	21.6892
303.964	30.6581
306.857	42.1256
309.75	17.5775
312.642	17.8721
315.535	20.5556
318.428	46.4095
321.32	28.2675
324.213	44.5698
327.106	25.603
329.998	19.8607
332.891	45.1222
335.784	31.6949
338.677	27.8142
341.569	25.2497
344.462	32.5241
347.355	35.3188
350.247	9.18735
353.14	9.42789
356.033	32.2728
358.925	1.47099
361.818	25.1409
364.711	35.7146
367.604	22.5593
370.496	25.3901
373.389	25.6054
376.282	13.1868
379.174	2.20995
382.067	27.1411
384.96	19.4776
387.853	28.0012
390.745	4.39366
393.638	30.3602
396.531	14.7988
399.423	6.54472
402.316	28.6795
405.209	20.7993
408.101	6.42328
410.994	13.3753
413.887	9.29417
416.779	30.1286
419.672	36.315
422.565	12.0516
425.458	24.9841
428.35	11.9459
431.243	27.7582
434.136	50.5871
437.028	55.547
439.921	34.2316
442.814	44.7438
445.707	40.3927
448.599	57.3109
451.492	49.5224
454.385	60.7767
457.277	58.524
460.17	96.705
463.063	57.9435
465.955	68.1295
468.848	78.2579
471.741	79.4469
474.634	87.2851
477.526	74.1653
480.419	50.5665
483.312	59.71
486.204	41.0453
489.097	34.6308
491.99	50.6426
494.882	36.924
497.775	26.6023
500.668	31.7319
503.561	12.9903
506.453	12.1293
509.346	14.0552
512.239	26.6047
515.131	8.36031
518.024	26.2813
520.917	20.8149
523.809	5.44703
526.702	30.4062
529.595	0.754829
532.488	21.3422
535.38	11.3206
538.273	20.8432
541.166	5.93028
544.058	3.67642
546.951	4.46652
549.844	19.0574
552.736	25.3902
555.629	0.322464
558.522	33.6311
561.415	12.1461
564.307	21.6036
567.2	20.9729
570.093	21.5865
572.985	6.92769
575.878	11.1545
578.771	33.8895
581.663	17.7926
584.556	13.0081
587.449	10.7996
590.342	30.4749
593.234	15.8953
596.127	11.3949
599.02	22.0932
601.912	13.7983
604.805	11.6883
607.698	3.72234
610.591	13.5618
613.483	21.0519
616.376	33.4838
619.269	32.853
622.161	15.3451
625.054	3.54624
627.947	13.4374
630.839	8.69691
633.732	5.07535
636.625	33.7052
639.518	12.5461
642.41	18.8912
645.303	10.0707
648.196	15.0567
651.088	21.2738
653.981	13.9686
656.874	30.8825
659.766	1.46474
662.659	10.2453
665.552	7.23693
668.445	11.3286
671.337	10.6706
674.23	1.44764
677.123	26.7794
680.015	22.479
682.908	16.7469
685.801	9.69616
688.693	6.40515
691.586	0.860149
694.479	11.6679
697.372	14.0102
700.264	13.6787
703.157	19.4619
706.05	17.2439
708.942	10.8165
711.835	0.460026
714.728	14.5501
717.62	16.8602
720.513	14.7102
723.406	15.5493
726.299	17.8743
729.191	18.9952
732.084	13.8742
734.977	25.5643
737.869	15.9433
740.762	26.3808
743.655	7.18468
746.548	11.1352
749.44	5.78745
752.333	6.89261
755.226	23.2756
758.118	1.54041
761.011	13.6183
763.904	9.28032
766.796	17.3151
769.689	30.1457
772.582	8.60472
775.475	0.773729
778.367	21.6327
781.26	9.2227
784.153	12.4966
787.045	1.62883
789.938	14.591
792.831	13.0332
795.723	11.9721
798.616	14.7612
801.509	18.2648
804.402	1.33802
807.294	10.0828
810.187	29.31
813.08	6.05133
815.972	20.114
818.865	0.635967
821.758	7.322
824.65	16.2149
827.543	5.58781
830.436	34.84
833.329	18.6722
836.221	6.17276
839.114	3.39039
842.007	24.9006
844.899	9.55278
847.792	8.91555
850.685	14.0569
853.577	13.7655
856.47	11.8899
859.363	37.4649
862.256	29.7975
865.148	14.1185
868.041	10.9366
870.934	22.8751
873.826	15.9734
876.719	12.9958
879.612	15.0089
882.505	21.9196
885.397	18.5079
888.29	12.84
891.183	17.4996
894.075	12.4348
896.968	12.8436
899.861	25.1166
902.753	23.1055
905.646	8.97197
908.539	21.5933
911.432	22.7855
914.324	22.886
917.217	31.3257
920.11	11.7452
923.002	17.923
925.895	8.08147
928.788	23.3332
931.68	20.3332
934.573	5.59901
937.466	11.5104
940.359	28.3997
943.251	17.6243
946.144	15.6894
949.037	29.3129
951.929	17.9946
954.822	24.3893
957.715	28.6307
960.607	11.6443
963.5	26.1678
966.393	13.6063
969.285	35.7492
972.178	0.731177
975.071	6.2637
977.964	7.85098
980.856	12.1291
983.749	3.29118
986.642	19.9538
989.534	12.4913
992.427	13.5577
995.32	23.3422
998.212	9.13956
1001.11	12.2327
1004	6.69744
1006.89	20.7426
1009.78	10.552
1012.68	3.54326
1015.57	2.45064
1018.46	8.15031
1021.35	8.28819
1024.25	16.8568
1027.14	16.852
1030.03	10.659
1032.92	7.36881
1035.82	35.2929
1038.71	14.1011
1041.6	19.4503
1044.5	8.73667
1047.39	28.9768
1050.28	41.4341
1053.17	13.963
1056.07	22.132
1058.96	3.95573
1061.85	10.2057
1064.74	3.86723
1067.64	9.99319
1070.53	4.96396
1073.42	14.7116
1076.32	15.4986
1079.21	17.3766
1082.1	15.9416
1084.99	12.6323
1087.89	12.6095
1090.78	24.2236
1093.67	18.3815
1096.56	0.384252
1099.46	21.1861
1102.35	6.33623
1105.24	11.0452
1108.13	15.2994
1111.03	10.3434
1113.92	16.8022
1116.81	13.2795
1119.71	26.28
1122.6	12.1506
1125.49	6.49856
1128.38	22.0536
1131.28	10.861
1134.17	8.24114
1137.06	3.14818
1139.95	6.59126
1142.85	10.2683
1145.74	20.5651
1148.63	8.73202
1151.53	14.131
1154.42	12.5613
1157.31	19.5983
1160.2	10.5556
1163.1	27.6089
1165.99	4.26719
1168.88	13.2962
1171.78	6.20952
1174.67	11.7423
1177.56	17.7611
1180.45	13.3735
1183.35	14.4771
1186.24	25.5347
1189.13	7.62866
1192.02	5.33707
1194.92	0.715471
1197.81	24.2784
1200.7	5.30824
1203.59	30.1269
1206.49	24.9614
1209.38	14.6993
1212.27	30.2534
1215.16	6.18905
1218.06	22.1696
1220.95	1.37606
1223.84	4.08352
1226.74	18.8518
1229.63	7.20421
1232.52	22.1775
1235.41	15.2044
1238.31	25.3546
1241.2	18.4271
1244.09	32.0732
1246.98	26.1007
1249.88	18.4405
1252.77	21.4111
1255.66	8.82119
1258.56	16.3451
1261.45	9.24377
1264.34	18.8903
1267.23	12.3859
1270.13	7.47071
1273.02	4.25575
1275.91	3.50804
1278.81	2.76695
