Measurement: Raman, 532 nm, unoriented, Raman Data Processed
Mineral: Kolarite
Rruff sample: R070677
Ideal chemistry: PbTeCl_2_
Locality: Oktyabr'sky Mine, Noril'sk, Putoran Mts, Taymyrskiy Autonomous Okrug, Eastern-Siberian Region, Russia
Source: Michael Scott
Description: Steel gray metallic massive polished fragment embedded in epoxy
Raman shift (cm-1)	intensity
145.806	0
148.699	39.0022
151.592	3.32752
154.484	37.5798
157.377	67.2065
160.27	29.0067
163.162	77.1922
166.055	25.4957
168.948	12.0139
171.841	65.5333
174.733	52.2028
177.626	10.6547
180.519	33.8396
183.411	15.4028
186.304	54.217
189.197	73.6747
192.089	82.9434
194.982	82.6631
197.875	48.3215
200.768	28.5886
203.66	37.9475
206.553	24.0865
209.446	55.3909
212.338	46.8029
215.231	41.7128
218.124	0.126343
221.017	65.5679
223.909	37.1868
226.802	61.6086
229.695	29.3426
232.587	43.8104
235.48	68.7274
238.373	38.3621
241.265	39.8221
244.158	54.6379
247.051	34.7956
249.944	31.0923
252.836	1.47842
255.729	12.5722
258.622	10.011
261.514	2.17438
264.407	1.79257
267.3	11.6425
270.192	30.4489
273.085	37.7083
275.978	38.522
278.87	20.5629
281.763	25.9799
284.656	25.9037
287.549	21.7707
290.441	34.4228
293.334	17.7947
296.227	25.03
299.119	4.39963
302.012	27.0718
304.905	29.9742
307.798	26.6002
310.69	15.7033
313.583	24.604
316.476	26.0566
319.368	24.9587
322.261	13.2508
325.154	11.8685
328.046	28.0938
330.939	14.5579
333.832	8.72479
336.724	42.0155
339.617	46.4619
342.51	43.0571
345.403	20.2447
348.295	23.3785
351.188	55.0639
354.081	19.4503
356.973	10.7486
359.866	24.3834
362.759	25.4252
365.651	37.3792
368.544	22.4119
371.437	14.05
374.329	3.36694
377.222	9.88397
380.115	5.08295
383.008	24.8492
385.9	7.64871
388.793	12.0261
391.686	4.24286
394.578	8.3783
397.471	24.0614
400.364	27.8548
403.257	10.1104
406.149	21.4549
409.042	13.9335
411.935	16.084
414.827	17.8351
417.72	11.5727
420.613	21.2678
423.505	6.24576
426.398	12.7675
429.291	50.0112
432.183	30.3542
435.076	55.9936
437.969	24.2036
440.862	42.5701
443.754	33.8614
446.647	51.2751
449.54	67.0402
452.432	38.2217
455.325	87.0229
458.218	87.7964
461.111	65.0345
464.003	89.6862
466.896	80.1612
469.789	105.31
472.681	80.5356
475.574	55.1562
478.467	84.5092
481.359	25.4269
484.252	28.0855
487.145	49.445
490.038	34.6972
492.93	30.5271
495.823	42.9078
498.716	11.2135
501.608	40.489
504.501	0.036636
507.394	29.8524
510.286	2.5477
513.179	16.9237
516.072	11.5265
518.965	4.02498
521.857	27.3584
524.75	5.98183
527.643	25.1923
530.535	13.1017
533.428	1.01566
536.321	12.068
539.213	1.33635
542.106	16.6928
544.999	3.10725
547.891	26.683
550.784	8.47909
553.677	28.5509
556.57	10.3448
559.462	38.7022
562.355	22.4362
565.248	27.3049
568.14	10.6418
571.033	21.7246
573.926	28.2929
576.818	13.6617
579.711	41.705
582.604	23.3207
585.497	22.4885
588.389	23.1642
591.282	2.70798
594.175	14.7797
597.067	27.8836
599.96	17.7321
602.853	12.7135
605.745	25.526
608.638	13.8078
611.531	24.0875
614.424	20.7636
617.316	22.2101
620.209	10.1567
623.102	21.0585
625.994	7.64346
628.887	15.0296
631.78	14.0353
634.673	19.0125
637.565	11.854
640.458	19.764
643.351	23.1712
646.243	24.4851
649.136	14.6435
652.029	1.06801
654.921	14.4329
657.814	5.98373
660.707	7.2536
663.599	1.40755
666.492	9.54892
669.385	10.3493
672.278	4.61957
675.17	32.6703
678.063	29.0092
680.956	20.3735
683.848	15.9879
686.741	2.20966
689.634	7.28896
692.526	13.4074
695.419	22.4762
698.312	8.48567
701.205	23.1352
704.097	30.7599
706.99	23.8911
709.883	23.4738
712.775	30.6262
715.668	7.80839
718.561	39.5129
721.453	26.8385
724.346	36.2217
727.239	7.37549
730.131	17.1731
733.024	22.7327
735.917	22.2955
738.81	36.4528
741.702	12.1428
744.595	17.4452
747.488	26.8523
750.38	8.70737
753.273	22.3172
756.166	22.8374
759.058	4.73592
761.951	11.6483
764.844	4.95904
767.737	15.2044
770.629	20.0557
773.522	13.6933
776.415	12.7902
779.307	6.65819
782.2	11.2499
785.093	4.86717
787.986	18.4803
790.878	1.60315
793.771	29.1282
796.664	12.9596
799.556	19.6358
802.449	18.3235
805.342	5.15038
808.234	15.1483
811.127	20.5141
814.02	29.3088
816.913	1.38811
819.805	25.7403
822.698	24.8155
825.591	24.8244
828.483	6.97522
831.376	14.2251
834.269	7.02943
837.161	6.6218
840.054	1.38016
842.947	14.9545
845.84	6.70499
848.732	25.0117
851.625	3.77033
854.518	14.4642
857.41	39.8223
860.303	18.3127
863.196	45.9343
866.088	9.45909
868.981	18.0633
871.874	11.2791
874.766	3.33722
877.659	13.1237
880.552	19.3038
883.445	32.5518
886.337	4.96515
889.23	21.2076
892.123	27.7958
895.015	24.6868
897.908	10.2049
900.801	8.89125
903.693	26.0745
906.586	23.0902
909.479	37.4318
912.372	23.1136
915.264	15.3087
918.157	22.5148
921.05	26.2228
923.942	27.7008
926.835	17.1323
929.728	17.1036
932.62	0.161575
935.513	25.5046
938.406	4.09817
941.299	11.2337
944.191	16.7582
947.084	19.8192
949.977	13.269
952.869	37.4333
955.762	23.2125
958.655	29.645
961.548	28.6461
964.44	8.98334
967.333	12.4131
970.226	5.88023
973.118	21.6929
976.011	7.88228
978.904	13.9367
981.796	20.8248
984.689	8.02031
987.582	3.70163
990.474	3.74619
993.367	8.2794
996.26	14.1507
999.153	19.7999
1002.04	5.04858
1004.94	7.11883
1007.83	48.1655
1010.72	17.6693
1013.62	29.0859
1016.51	10.9701
1019.4	5.98685
1022.29	23.2242
1025.19	41.5035
1028.08	21.8589
1030.97	22.7748
1033.87	25.8774
1036.76	24.243
1039.65	28.2303
1042.54	45.7591
1045.44	20.5122
1048.33	37.651
1051.22	23.9204
1054.11	34.8175
1057.01	29.7397
1059.9	23.2884
1062.79	26.9911
1065.68	4.3579
1068.58	15.009
1071.47	8.91664
1074.36	14.0162
1077.26	15.8546
1080.15	38.6788
1083.04	30.8418
1085.93	14.788
1088.83	6.99826
1091.72	19.9253
1094.61	28.1861
1097.5	6.83289
1100.4	11.082
1103.29	20.0591
1106.18	0.674103
1109.08	24.5039
1111.97	15.6197
1114.86	16.5268
1117.75	22.1634
1120.65	23.8955
1123.54	15.8277
1126.43	18.9749
1129.32	5.6718
1132.22	4.76172
1135.11	19.1636
1138	39.1803
1140.89	14.6207
1143.79	13.4202
1146.68	17.2024
1149.57	13.9515
1152.47	11.995
1155.36	27.9753
1158.25	13.8942
1161.14	6.08144
1164.04	19.0492
1166.93	5.70451
1169.82	11.4743
1172.71	19.7633
1175.61	11.3377
1178.5	7.39455
1181.39	3.00633
1184.29	0.111183
1187.18	26.5053
1190.07	30.0082
1192.96	6.34516
1195.86	10.1878
1198.75	10.269
1201.64	22.9705
1204.53	11.2245
1207.43	20.5254
1210.32	16.9671
1213.21	18.7255
1216.11	24.198
1219	28.3949
1221.89	28.1595
1224.78	15.5319
1227.68	6.10828
1230.57	21.17
1233.46	6.11602
1236.35	15.4318
1239.25	6.11793
1242.14	17.0374
1245.03	15.1801
1247.92	10.2237
1250.82	24.4317
1253.71	13.4774
1256.6	34.1715
1259.49	15.9801
1262.39	13.6057
1265.28	23.5903
1268.17	10.4524
1271.07	15.2949
1273.96	15.7873
1276.85	0.094452
1279.74	3.67448
