Measurement: Raman, 780 nm, unoriented, Raman Data Processed
Mineral: Kosmochlor
Rruff sample: R120015
Ideal chemistry: NaCr^3+^Si_2_O_6_
Locality: Synthetic
Source: George Harlow
Description: Green fragments. Sample was synthesized by Harlow (1997) and used in the Origlieri et al (2003) study
Measured chemistry: Na_1.00_(Cr_0.99_Fe^3+^_0.01_)Si_2.00_O_6_ ;after normalization to four total cations, using data of Harlow (1997).
Raman shift (cm-1)	intensity
110.406	1.66385e+06
113.781	1.66261e+06
117.156	1.66208e+06
120.531	1.65943e+06
123.905	1.65877e+06
127.28	1.66155e+06
130.655	1.66098e+06
134.03	1.6621e+06
137.405	1.66232e+06
140.779	1.66141e+06
144.154	1.66036e+06
147.529	1.65938e+06
150.904	1.657e+06
154.279	1.6551e+06
157.654	1.65503e+06
161.028	1.65375e+06
164.403	1.65146e+06
167.778	1.64989e+06
171.153	1.64758e+06
174.528	1.64609e+06
177.902	1.64603e+06
181.277	1.64244e+06
184.652	1.63797e+06
188.027	1.63623e+06
191.402	1.63677e+06
194.776	1.63536e+06
198.151	1.63188e+06
201.526	1.62531e+06
204.901	1.6215e+06
208.276	1.62126e+06
211.651	1.6185e+06
215.025	1.61578e+06
218.4	1.61318e+06
221.775	1.6109e+06
225.15	1.60633e+06
228.525	1.60308e+06
231.899	1.59963e+06
235.274	1.59822e+06
238.649	1.59388e+06
242.024	1.58729e+06
245.399	1.58347e+06
248.774	1.58207e+06
252.148	1.57683e+06
255.523	1.57152e+06
258.898	1.56955e+06
262.273	1.56679e+06
265.648	1.56253e+06
269.022	1.55774e+06
272.397	1.55202e+06
275.772	1.54776e+06
279.147	1.5434e+06
282.522	1.54103e+06
285.897	1.53405e+06
289.271	1.52967e+06
292.646	1.52515e+06
296.021	1.52008e+06
299.396	1.51565e+06
302.771	1.50994e+06
306.145	1.50369e+06
309.52	1.49905e+06
312.895	1.49538e+06
316.27	1.49048e+06
319.645	1.48605e+06
323.019	1.47979e+06
326.394	1.47265e+06
329.769	1.46951e+06
333.144	1.46362e+06
336.519	1.46112e+06
339.894	1.45639e+06
343.268	1.45146e+06
346.643	1.44618e+06
350.018	1.44072e+06
353.393	1.43576e+06
356.768	1.43268e+06
360.142	1.4264e+06
363.517	1.41994e+06
366.892	1.41549e+06
370.267	1.41369e+06
373.642	1.40659e+06
377.017	1.40113e+06
380.391	1.39541e+06
383.766	1.39071e+06
387.141	1.38784e+06
390.516	1.38428e+06
393.891	1.3794e+06
397.265	1.37625e+06
400.64	1.37226e+06
404.015	1.36904e+06
407.39	1.36585e+06
410.765	1.36178e+06
414.14	1.35888e+06
417.514	1.35555e+06
420.889	1.35409e+06
424.264	1.34889e+06
427.639	1.34402e+06
431.014	1.34132e+06
434.389	1.33726e+06
437.763	1.33502e+06
441.138	1.33021e+06
444.513	1.32936e+06
447.888	1.32547e+06
451.263	1.3211e+06
454.637	1.31759e+06
458.012	1.31606e+06
461.387	1.31377e+06
464.762	1.30946e+06
468.137	1.3059e+06
471.512	1.3021e+06
474.886	1.29971e+06
478.261	1.29492e+06
481.636	1.28976e+06
485.011	1.28614e+06
488.386	1.28193e+06
491.76	1.27947e+06
495.135	1.27597e+06
498.51	1.27247e+06
501.885	1.26855e+06
505.26	1.26583e+06
508.635	1.26259e+06
512.009	1.25876e+06
515.384	1.25492e+06
518.759	1.24911e+06
522.134	1.2455e+06
525.509	1.23929e+06
528.883	1.2359e+06
532.258	1.23288e+06
535.633	1.22852e+06
539.008	1.22367e+06
542.383	1.22076e+06
545.757	1.21601e+06
549.132	1.21286e+06
552.507	1.21073e+06
555.882	1.20576e+06
559.257	1.20289e+06
562.631	1.19904e+06
566.006	1.19597e+06
569.381	1.1925e+06
572.756	1.18634e+06
576.131	1.18249e+06
579.506	1.17756e+06
582.88	1.17485e+06
586.255	1.17322e+06
589.63	1.1679e+06
593.005	1.16517e+06
596.38	1.16142e+06
599.755	1.15548e+06
603.129	1.15205e+06
606.504	1.14844e+06
609.879	1.14358e+06
613.254	1.13937e+06
616.629	1.13555e+06
620.003	1.13032e+06
623.378	1.12573e+06
626.753	1.12298e+06
630.128	1.11772e+06
633.503	1.11312e+06
636.878	1.10901e+06
640.252	1.10612e+06
643.627	1.10016e+06
647.002	1.09643e+06
650.377	1.09201e+06
653.752	1.08678e+06
657.126	1.08267e+06
660.501	1.0787e+06
663.876	1.07253e+06
667.251	1.06924e+06
670.626	1.06318e+06
674	1.05924e+06
677.375	1.05537e+06
680.75	1.05187e+06
684.125	1.04717e+06
687.5	1.04442e+06
690.875	1.03843e+06
694.249	1.03499e+06
697.624	1.02948e+06
700.999	1.02725e+06
704.374	1.02423e+06
707.749	1.02223e+06
711.124	1.01838e+06
714.498	1.01498e+06
717.873	1.01162e+06
721.248	1.00814e+06
724.623	1.00681e+06
727.998	1.00257e+06
731.372	1.00106e+06
734.747	996011
738.122	994429
741.497	989698
744.872	987645
748.246	985766
751.621	982726
754.996	978561
758.371	976541
761.746	974446
765.12	970276
768.495	966627
771.87	966209
775.245	962907
778.62	961948
781.995	959608
785.369	957650
788.744	956187
792.119	953346
795.494	952404
798.869	950103
802.244	945741
805.618	944871
808.993	944046
812.368	939896
815.743	938946
819.118	936670
822.492	934802
825.867	932875
829.242	929869
832.617	927631
835.992	926440
839.366	923450
842.741	919807
846.116	917716
849.491	914527
852.866	911448
856.241	909400
859.615	909816
862.99	904356
866.365	900542
869.74	897739
873.115	896309
876.49	893843
879.864	889761
883.239	887432
886.614	883689
889.989	879972
893.364	878223
896.738	872290
900.113	869940
903.488	868477
906.863	867237
910.238	863872
913.612	860828
916.987	858011
920.362	854385
923.737	851682
927.112	848277
930.487	847106
933.861	844402
937.236	841927
940.611	838461
943.986	835599
947.361	833399
950.736	830725
954.11	828852
957.485	824482
960.86	822811
964.235	817877
967.61	815900
970.984	812287
974.359	810240
977.734	807242
981.109	805156
984.484	802556
987.859	800482
991.233	798690
994.608	797621
997.983	794748
1001.36	791629
1004.73	789252
1008.11	787010
1011.48	785259
1014.86	783665
1018.23	782116
1021.61	779745
1024.98	777358
1028.36	775010
1031.73	773251
1035.11	771648
1038.48	770769
1041.86	766317
1045.23	763503
1048.61	761234
1051.98	759915
1055.36	758838
1058.73	756277
1062.1	754462
1065.48	753241
1068.85	751267
1072.23	749624
1075.6	746407
1078.98	743431
1082.35	742015
1085.73	739862
1089.1	738845
1092.48	736882
1095.85	734114
1099.23	731828
1102.6	730123
1105.98	728088
1109.35	726503
1112.73	724651
1116.1	722152
1119.48	720288
1122.85	719496
1126.23	718654
1129.6	717606
1132.98	716996
1136.35	715984
1139.72	713718
1143.1	712758
1146.47	712344
1149.85	712112
1153.22	709335
1156.6	707144
1159.97	706209
1163.35	707004
1166.72	704375
1170.1	703505
1173.47	703010
1176.85	700652
1180.22	700282
1183.6	697467
1186.97	696462
1190.35	695415
1193.72	693037
1197.1	691552
1200.47	689511
1203.85	687902
1207.22	686021
1210.6	684879
1213.97	682643
1217.35	682652
1220.72	679239
1224.1	677469
1227.47	676130
1230.85	674392
1234.22	672738
1237.6	670923
1240.97	667263
1244.34	666410
1247.72	666922
1251.09	664049
1254.47	663119
1257.84	662837
1261.22	662756
1264.59	663904
1267.97	662038
1271.34	660230
1274.72	659438
1278.09	660340
1281.47	658906
1284.84	659536
