Measurement: Raman, 532 nm, unoriented, Raman Data Processed
Mineral: Kostovite
Rruff sample: R070282
Ideal chemistry: AuCuTe_4_
Locality: Chelopech mine, Chelopech Obshchina, Balkan Mts, Sofiya Oblast, Bulgaria
Source: Michael Scott
Description: Dark gray metallic fragment embedded in epoxy. Portion of type sample
Measured chemistry: Au_1.00_(Cu_0.85_Ag_0.28_)_Î£=1.13_Te_4_ ; normalized to Te_4_
Raman shift (cm-1)	intensity
174.25	0
177.143	9.63721
180.035	56.3335
182.928	5.05518
185.821	51.8008
188.713	2.87109
191.606	3.05273
194.499	6.19775
197.391	30.3735
200.284	25.8892
203.177	34.4976
206.07	46.4507
208.962	31.2373
211.855	62.4727
214.748	52.3477
217.64	37.6509
220.533	29.4229
223.426	14.8047
226.318	33.8398
229.211	13.4077
232.104	38.938
234.996	29.8804
237.889	58.1006
240.782	2.4541
243.675	13.9727
246.567	59.7539
249.46	6.49268
252.353	60.5908
255.245	33.8677
258.138	39.0435
261.031	116.649
263.923	33.9565
266.816	128.611
269.709	141.676
272.602	97.4707
275.494	182.35
278.387	163.645
281.28	165.672
284.173	181.772
287.065	173.148
289.958	150.195
292.851	248.489
295.743	179.385
298.636	192.663
301.529	251.815
304.421	305.806
307.314	297.66
310.207	316.872
313.099	370.565
315.992	314.683
318.885	350.188
321.778	432.577
324.67	419.451
327.563	410.642
330.456	462.872
333.348	507.571
336.241	462.645
339.134	487.289
342.026	498.433
344.919	475.349
347.812	422.36
350.705	411.245
353.597	429.172
356.49	458.951
359.383	468.413
362.275	516.773
365.168	595.441
368.061	717.68
370.954	761.095
373.846	748.92
376.739	688.102
379.632	606.116
382.524	392.974
385.417	266.353
388.31	188.633
391.202	49.9688
394.095	30.9707
396.988	20.8252
399.88	31.334
402.773	31.6377
405.666	32.8496
408.559	7.76953
411.451	10.2261
414.344	9.67725
417.237	46.0239
420.129	9.38232
423.022	62.5557
425.915	36.4966
428.808	33.8062
431.7	27.6611
434.593	37.5151
437.486	73.7017
440.378	77.3648
443.271	42.4751
446.164	79.7842
449.056	114.909
451.949	83.3066
454.842	72.7915
457.735	61.5562
460.627	90.4956
463.52	57.1475
466.413	134.476
469.305	87.7183
472.198	79.3887
475.091	159.192
477.983	99.0889
480.876	128.975
483.769	96.1728
486.661	121.318
489.554	86.3247
492.447	112.799
495.34	160.694
498.232	91.2769
501.125	69.8213
504.018	44.9849
506.911	33.6548
509.803	61.2505
512.696	40.3994
515.589	63.294
518.481	71.7471
521.374	14.7114
524.267	80.9058
527.159	80.1558
530.052	13.2124
532.945	28.3345
535.837	10.9761
538.73	16.7354
541.623	51.6841
544.516	18.5947
547.408	51.1587
550.301	11.9536
553.194	31.6689
556.086	60.8081
558.979	17.3042
561.872	56.2666
564.764	43.3701
567.657	26.4736
570.55	10.4507
573.443	25.5342
576.335	35.6865
579.228	14.7231
582.121	0.333496
585.013	1.59473
587.906	32.6397
590.799	57.581
593.692	29.5889
596.584	98.1924
599.477	5.35596
602.37	72.1592
605.262	62.2842
608.155	54.8643
611.048	52.4316
613.94	70.1216
616.833	117.887
619.726	113.098
622.619	139.134
625.511	125.465
628.404	91.5376
631.297	133.624
634.189	108.311
637.082	146.784
639.975	129.49
642.867	168.032
645.76	185.671
648.653	167.728
651.545	182.63
654.438	168.447
657.331	209.632
660.224	184.551
663.116	124.692
666.009	133.211
668.902	215.441
671.794	110.168
674.687	172.73
677.58	128.996
680.472	170.667
683.365	141.027
686.258	138.759
689.151	124.342
692.043	114.846
694.936	128.613
697.829	95.7695
700.721	102.988
703.614	122.806
706.507	90.3403
709.399	68.415
712.292	64.5811
715.185	51.3091
718.078	28.3755
720.97	1.50439
723.863	68.9702
726.756	90.2178
729.648	11.6396
732.541	64.791
735.434	24.4033
738.327	20.1006
741.219	65.0635
744.112	0.499512
747.005	45.1636
749.897	63.8154
752.79	7.82715
755.683	39.0312
758.576	14.8281
761.468	45.8584
764.361	10.3608
767.254	11.8955
770.146	38.1519
773.039	35.3262
775.932	25.3789
778.824	30.6782
781.717	76.5249
784.61	92.6084
787.503	104.851
790.395	50.9321
793.288	85.2847
796.181	96.895
799.073	143.817
801.966	104.569
804.859	109.41
807.751	112.897
810.644	92.6348
813.537	129.909
816.429	157.587
819.322	180.189
822.215	203.532
825.108	156.078
828	124.081
830.893	171.76
833.786	210.059
836.678	169.231
839.571	208.171
842.464	211.469
845.356	192.769
848.249	132.548
851.142	198.381
854.035	136.645
856.927	236.102
859.82	160.795
862.713	210.805
865.605	181.793
868.498	139.648
871.391	103.143
874.284	106.758
877.176	102.496
880.069	58.1641
882.962	21.0391
885.854	94.1538
888.747	94.1728
891.64	69.0444
894.533	47.2925
897.425	51.6704
900.318	32.3965
903.211	56.4619
906.103	69.2988
908.996	75.3169
911.889	11.8154
914.781	52.4111
917.674	48.1177
920.567	17.3433
923.46	63.3726
926.352	73.7871
929.245	15.1475
932.138	21.8726
935.03	10.8252
937.923	32.5005
940.816	26.9507
943.708	12.4307
946.601	30.0483
949.494	2.79492
952.386	40.4468
955.279	23.5571
958.172	50.6992
961.065	66.9268
963.957	37.9893
966.85	55.4316
969.743	87.1562
972.635	52.5049
975.528	57.8892
978.421	59.8398
981.313	75.5044
984.206	54.6392
987.099	33.6733
989.992	78.0874
992.884	95.1103
995.777	63.7393
998.67	100.55
1001.56	76.0317
1004.46	65.8608
1007.35	87.0644
1010.24	77.0229
1013.13	80.4155
1016.03	59.8315
1018.92	87.6553
1021.81	28.2578
1024.7	67.5396
1027.6	9.90088
1030.49	135.504
1033.38	28.958
1036.28	62.144
1039.17	56.6084
1042.06	78.6894
1044.95	60.2114
1047.85	77.9683
1050.74	5.38428
1053.63	31.8814
1056.52	98.749
1059.42	40.7495
1062.31	70.105
1065.2	51.1626
1068.09	58.1763
1070.99	71.1406
1073.88	70.8525
1076.77	97.6924
1079.66	90.4121
1082.56	79.8071
1085.45	41.4395
1088.34	43.6851
1091.24	46.8862
1094.13	8.31445
1097.02	101.454
1099.91	32.4805
1102.81	53.6465
1105.7	84.3149
1108.59	47.2949
1111.48	80.7007
1114.38	30.1318
1117.27	109.406
1120.16	71.4551
1123.06	37.9727
1125.95	18.6289
1128.84	0.761719
1131.73	40.8213
1134.63	36.0225
1137.52	94.4224
1140.41	119.243
1143.31	81.0952
1146.2	97.645
1149.09	87.561
1151.98	72.4277
1154.88	50.727
1157.77	65.7046
1160.66	101.033
1163.55	79.0591
1166.45	59.9609
1169.34	17.6865
1172.23	24.0942
1175.12	20.9145
1178.02	86.6602
1180.91	110.121
1183.8	56.1304
1186.69	78.2427
1189.59	34.4248
1192.48	64.5474
1195.37	87.707
1198.27	10.04
1201.16	41.3037
1204.05	60.2788
1206.94	2.33008
1209.84	107.034
1212.73	122.685
1215.62	38.2358
1218.52	52.5855
1221.41	2.58301
1224.3	15.4019
1227.19	34.9634
1230.09	14.8462
1232.98	113.766
1235.87	94.9048
1238.76	123.936
1241.66	36.1787
1244.55	7.84863
1247.44	78.8765
1250.34	29.523
1253.23	20.5273
1256.12	44.9385
1259.01	108.759
1261.91	34.3897
1264.8	92.4512
1267.69	81.1055
1270.58	65.8662
1273.48	43.7227
1276.37	97.1924
1279.26	7.69238
1282.15	63.0029
1285.05	50.874
1287.94	30.5986
1290.83	64.0449
1293.72	4.55957
1296.62	37.7812
1299.51	1.6543
1302.4	0
