Measurement: Raman, 532 nm, unoriented, Raman Data Processed
Mineral: Kotoite
Rruff sample: R060940
Ideal chemistry: Mg_3_(BO_3_)_2_
Locality: Hol Kol mine, Samdung, near Pyongyang, Suan County, North Korea
Source: Michael Scott
Description: Aggregate of pale green micro grains
Measured chemistry: (Mg_2.98_Fe_0.02_)_Î£=3_(BO_3_)_2_ ; trace amounts of Mn; B_2_O_3_ estimated by difference
Raman shift (cm-1)	intensity
154.307	0
157.2	6.87694
160.092	6.45717
162.985	17.2995
165.878	13.5003
168.77	11.6062
171.663	11.3354
174.556	11.9569
177.448	6.87299
180.341	7.02834
183.234	11.0467
186.127	12.7756
189.019	17.8131
191.912	18.7732
194.805	23.0136
197.697	38.1585
200.59	39.4198
203.483	17.6658
206.375	52.3975
209.268	36.1657
212.161	10.2615
215.054	32.2927
217.946	11.9153
220.839	5.08743
223.732	11.9678
226.624	6.41909
229.517	2.95757
232.41	14.6836
235.303	4.1068
238.195	4.63146
241.088	26.8497
243.981	31.035
246.873	13.9413
249.766	21.8326
252.659	28.1868
255.551	17.8771
258.444	12.6864
261.337	19.7987
264.229	30.1286
267.122	0.273216
270.015	12.2212
272.908	16.1592
275.8	20.8698
278.693	11.9321
281.586	18.1428
284.478	3.38821
287.371	8.19458
290.264	26.6623
293.156	21.4704
296.049	24.8724
298.942	18.3236
301.834	13.9489
304.727	34.7789
307.62	12.592
310.513	8.18036
313.405	19.2677
316.298	12.3899
319.191	15.9654
322.083	9.16548
324.976	11.5002
327.869	22.7225
330.762	10.5972
333.654	2.55993
336.547	21.1406
339.44	6.28302
342.332	24.9947
345.225	9.62563
348.118	17.3234
351.01	20.3717
353.903	26.1969
356.796	13.112
359.688	33.0318
362.581	11.529
365.474	11.0921
368.366	29.0151
371.259	4.5945
374.152	7.8325
377.045	13.6631
379.937	35.7322
382.83	12.0289
385.723	26.8071
388.615	14.5509
391.508	1.84541
394.401	1.87125
397.293	24.9858
400.186	3.06502
403.079	0.634079
405.972	4.0021
408.864	3.08592
411.757	20.1046
414.65	8.17035
417.542	19.9094
420.435	11.7492
423.328	31.7
426.221	15.2679
429.113	18.2074
432.006	7.4138
434.899	25.3404
437.791	1.08483
440.684	9.55779
443.577	7.48283
446.469	16.3273
449.362	21.705
452.255	23.8068
455.147	1.07481
458.04	11.7493
460.933	34.6235
463.826	16.7902
466.718	21.8219
469.611	2.6405
472.504	15.3463
475.396	27.3615
478.289	28.5275
481.182	27.0309
484.074	0.701553
486.967	17.319
489.86	15.7796
492.752	29.8681
495.645	18.1547
498.538	19.5599
501.431	22.4698
504.323	21.2777
507.216	22.7389
510.109	25.8307
513.001	20.2874
515.894	0.293381
518.787	19.6841
521.679	6.62754
524.572	25.5115
527.465	23.7563
530.358	6.09174
533.25	6.08434
536.143	14.4359
539.036	7.91106
541.928	39.2785
544.821	8.23725
547.714	25.5484
550.606	13.7704
553.499	4.36414
556.392	17.7789
559.284	19.1098
562.177	22.4653
565.07	26.6519
567.963	18.723
570.855	26.733
573.748	22.6419
576.641	22.7741
579.533	17.5425
582.426	24.6746
585.319	32.1342
588.212	31.2097
591.104	25.0037
593.997	16.1847
596.89	28.9163
599.782	14.4222
602.675	1.29029
605.568	0.743935
608.46	26.3426
611.353	36.5747
614.246	0.701599
617.139	18.0855
620.031	27.1942
622.924	4.52037
625.817	14.441
628.709	27.4146
631.602	21.4721
634.495	25.4185
637.387	4.69553
640.28	13.4837
643.173	13.5052
646.066	20.432
648.958	12.2678
651.851	44.5579
654.744	8.85844
657.636	32.9478
660.529	12.2831
663.422	6.62283
666.314	15.2186
669.207	14.1629
672.1	13.4693
674.992	7.35463
677.885	21.3169
680.778	15.4503
683.67	18.2984
686.563	22.6072
689.456	8.51882
692.349	21.0901
695.241	15.4447
698.134	22.5747
701.027	19.5541
703.919	23.7061
706.812	20.6463
709.705	6.00082
712.597	14.2527
715.49	35.5405
718.383	22.182
721.276	9.15111
724.168	9.68837
727.061	20.2123
729.954	3.61347
732.846	18.824
735.739	7.01253
738.632	7.10072
741.524	15.6355
744.417	1.21005
747.31	18.9623
750.203	13.394
753.095	14.1207
755.988	28.2595
758.881	3.57104
761.773	5.84723
764.666	14.6053
767.559	22.5917
770.452	0.242104
773.344	25.7689
776.237	10.3193
779.13	19.8917
782.022	15.8829
784.915	31.4407
787.808	30.7014
790.7	19.8709
793.593	20.021
796.486	38.179
799.378	16.898
802.271	16.1864
805.164	23.6056
808.057	22.6613
810.949	21.3595
813.842	6.32554
816.735	23.5271
819.627	14.6031
822.52	18.1106
825.413	8.96195
828.305	12.5271
831.198	2.21382
834.091	29.5699
836.984	22.8623
839.876	35.6994
842.769	22.5634
845.662	7.56011
848.554	20.4288
851.447	26.8643
854.34	30.6176
857.232	15.2474
860.125	20.4548
863.018	25.7153
865.91	17.6323
868.803	2.35448
871.696	34.6058
874.589	10.0117
877.481	18.5483
880.374	1.88042
883.267	23.984
886.159	12.5254
889.052	22.1459
891.945	12.2659
894.837	16.2048
897.73	28.7768
900.623	8.36726
903.516	35.1431
906.408	28.8325
909.301	52.991
912.194	55.6623
915.086	51.9093
917.979	75.4529
920.872	44.3914
923.764	36.0189
926.657	34.7446
929.55	25.244
932.442	14.2107
935.335	20.3035
938.228	30.931
941.121	18.5898
944.013	14.4041
946.906	35.4212
949.799	19.786
952.691	25.9736
955.584	7.26011
958.477	20.4223
961.37	5.52705
964.262	29.6379
967.155	31.1951
970.048	2.61318
972.94	18.7142
975.833	2.93328
978.726	20.4061
981.618	20.0445
984.511	4.8959
987.404	2.53365
990.296	2.29942
993.189	34.3598
996.082	21.0926
998.975	17.1844
1001.87	42.2359
1004.76	7.57076
1007.65	22.2605
1010.54	29.8344
1013.44	40.4934
1016.33	13.5045
1019.22	0.921402
1022.12	20.4191
1025.01	17.521
1027.9	6.87658
1030.79	8.28743
1033.69	35.4773
1036.58	5.44461
1039.47	28.903
1042.37	4.10651
1045.26	39.5442
1048.15	15.6372
1051.04	5.56634
1053.94	38.0196
1056.83	39.1309
1059.72	19.8219
1062.61	26.3162
1065.51	13.65
1068.4	2.27972
1071.29	3.82156
1074.18	34.9345
1077.08	13.9831
1079.97	11.2157
1082.86	25.2733
1085.76	32.197
1088.65	1.8081
1091.54	32.0399
1094.43	28.8938
1097.33	25.4926
1100.22	19.8331
1103.11	14.2578
1106	5.64182
1108.9	32.475
1111.79	27.6166
1114.68	32.0147
1117.58	9.83723
1120.47	26.1521
1123.36	29.8839
1126.25	2.92767
1129.15	17.7801
1132.04	11.4832
1134.93	38.9116
1137.82	21.3062
1140.72	26.8577
1143.61	9.47001
1146.5	28.3716
1149.39	35.2466
1152.29	20.5047
1155.18	3.52257
1158.07	10.6187
1160.97	11.0676
1163.86	8.05162
1166.75	9.57524
1169.64	40.2675
1172.54	8.83565
1175.43	28.9551
1178.32	7.58003
1181.21	17.6495
1184.11	6.07098
1187	20.5564
1189.89	27.5087
1192.79	39.4806
1195.68	21.244
1198.57	18.5981
1201.46	56.2261
1204.36	20.7021
1207.25	35.7657
1210.14	37.7797
1213.03	31.2689
1215.93	9.07002
1218.82	41.5462
1221.71	30.9569
1224.61	23.4462
1227.5	12.3551
1230.39	16.8864
1233.28	1.8734
1236.18	24.008
1239.07	31.1506
1241.96	11.6411
1244.85	12.9927
1247.75	32.8699
1250.64	16.4599
1253.53	2.12289
