Measurement: Raman, 785 nm, unoriented, Raman Data Processed
Mineral: Kotoite
Rruff sample: R060940
Ideal chemistry: Mg_3_(BO_3_)_2_
Locality: Hol Kol mine, Samdung, near Pyongyang, Suan County, North Korea
Source: Michael Scott
Description: Aggregate of pale green micro grains
Measured chemistry: (Mg_2.98_Fe_0.02_)_Î£=3_(BO_3_)_2_ ; trace amounts of Mn; B_2_O_3_ estimated by difference
Raman shift (cm-1)	intensity
158.169	0
161.062	13.9397
163.954	9.35942
166.847	18.3374
169.74	15.2706
172.632	15.0564
175.525	10.1085
178.418	25.1113
181.31	30.1765
184.203	19.1662
187.096	25.4163
189.989	7.3395
192.881	5.17644
195.774	12.0454
198.667	25.0864
201.559	28.2209
204.452	35.1669
207.345	21.7719
210.238	12.4361
213.13	14.5464
216.023	5.66753
218.916	13.0729
221.808	12.51
224.701	8.81546
227.594	8.17206
230.486	17.9783
233.379	3.14739
236.272	14.8734
239.164	2.92988
242.057	15.7407
244.95	13.4715
247.843	43.0128
250.735	72.0984
253.628	24.2247
256.521	10.7516
259.413	6.81439
262.306	24.681
265.199	27.5058
268.091	22.4529
270.984	20.0138
273.877	15.0055
276.769	13.7107
279.662	7.31013
282.555	0.517025
285.448	16.7813
288.34	12.431
291.233	7.31383
294.126	13.9415
297.018	15.538
299.911	1.54065
302.804	6.86491
305.697	23.5965
308.589	23.3109
311.482	1.19146
314.375	3.03674
317.267	18.3748
320.16	5.68217
323.053	10.8941
325.945	21.3104
328.838	22.4146
331.731	7.71777
334.623	4.07404
337.516	25.6343
340.409	10.0058
343.302	20.6672
346.194	8.63974
349.087	27.5775
351.98	31.7793
354.872	49.8439
357.765	53.0711
360.658	33.6606
363.55	13.9192
366.443	13.3028
369.336	11.5894
372.229	6.5096
375.121	18.1864
378.014	14.7353
380.907	18.4099
383.799	11.6219
386.692	17.2829
389.585	8.91627
392.477	10.7756
395.37	17.4149
398.263	27.0113
401.156	11.6481
404.048	4.78482
406.941	14.7475
409.834	23.6018
412.726	10.5434
415.619	6.28368
418.512	10.6187
421.404	3.17248
424.297	22.361
427.19	14.2487
430.082	14.4264
432.975	5.54837
435.868	2.81011
438.761	8.93861
441.653	18.0082
444.546	26.2187
447.439	14.4728
450.331	15.0113
453.224	12.9374
456.117	13.7242
459.01	20.3349
461.902	10.4672
464.795	17.4236
467.688	10.3436
470.58	25.9512
473.473	2.89044
476.366	43.0223
479.258	18.4385
482.151	5.17189
485.044	10.0774
487.937	19.478
490.829	39.4771
493.722	12.4821
496.615	23.7386
499.507	23.1231
502.4	15.3738
505.293	25.4948
508.185	20.2438
511.078	11.323
513.971	7.02921
516.864	16.884
519.756	7.44184
522.649	29.4987
525.542	27.2119
528.434	5.73376
531.327	24.9381
534.22	10.8054
537.112	21.9133
540.005	23.5115
542.898	23.7989
545.79	22.6357
548.683	3.65533
551.576	24.9734
554.469	12.076
557.361	42.4935
560.254	15.8979
563.147	33.9812
566.039	7.16388
568.932	18.7943
571.825	41.3749
574.717	27.5572
577.61	9.50799
580.503	6.18356
583.395	25.5623
586.288	22.4898
589.181	9.87645
592.074	8.03391
594.966	23.2797
597.859	33.6699
600.752	1.73651
603.644	30.8671
606.537	31.0213
609.43	3.35855
612.322	15.6129
615.215	18.7897
618.108	7.20834
621.001	5.28825
623.893	18.3426
626.786	11.2452
629.679	23.6564
632.571	14.9702
635.464	17.3387
638.357	15.953
641.25	20.3524
644.142	12.8607
647.035	15.1681
649.928	9.98111
652.82	8.76985
655.713	38.0942
658.606	8.97746
661.498	22.6046
664.391	14.541
667.284	7.22037
670.177	5.39296
673.069	16.2292
675.962	11.7321
678.855	19.8033
681.747	14.3136
684.64	2.59969
687.533	24.4833
690.425	12.2237
693.318	28.6477
696.211	9.46631
699.104	17.6599
701.996	17.8317
704.889	21.6894
707.782	24.4784
710.674	21.3615
713.567	8.92298
716.46	8.88052
719.352	10.4663
722.245	5.61203
725.138	14.6637
728.03	3.84429
730.923	9.46405
733.816	14.6116
736.709	6.68588
739.601	8.89183
742.494	11.298
745.387	29.9192
748.279	40.2171
751.172	17.6986
754.065	27.3736
756.957	2.22502
759.85	15.8354
762.743	9.79088
765.635	18.9287
768.528	11.8687
771.421	17.0015
774.314	18.9513
777.206	15.4504
780.099	7.27678
782.992	13.2347
785.884	18.0088
788.777	22.1065
791.67	22.3531
794.562	22.8504
797.455	26.0125
800.348	11.6413
803.241	15.4037
806.133	23.2732
809.026	23.5205
811.919	17.941
814.811	16.4641
817.704	10.3544
820.597	3.13404
823.49	24.5893
826.382	20.4834
829.275	20.0009
832.168	20.1342
835.06	2.71758
837.953	25.3107
840.846	17.0497
843.738	14.8383
846.631	17.5794
849.524	15.4016
852.416	10.9255
855.309	25.1484
858.202	10.5538
861.095	22.9052
863.987	3.81399
866.88	13.9758
869.773	41.8615
872.665	32.7473
875.558	31.1123
878.451	2.70369
881.343	13.23
884.236	14.3911
887.129	19.508
890.021	36.8963
892.914	30.1035
895.807	37.2297
898.7	17.3352
901.592	24.7457
904.485	26.7415
907.378	24.1508
910.27	25.4305
913.163	48.3133
916.056	56.2182
918.948	61.6142
921.841	70.3506
924.734	56.6629
927.627	17.6362
930.519	35.0017
933.412	34.7482
936.305	30.7939
939.197	10.379
942.09	33.3617
944.983	25.5963
947.875	16.1733
950.768	31.2966
953.661	18.3337
956.554	15.2719
959.446	19.8719
962.339	13.8626
965.232	30.8263
968.124	17.1073
971.017	4.65284
973.91	9.71845
976.803	20.2184
979.695	11.9634
982.588	8.3971
985.481	19.085
988.373	25.4102
991.266	21.9408
994.159	21.4699
997.051	34.6495
999.944	30.9545
1002.84	11.493
1005.73	33.3794
1008.62	2.7829
1011.51	40.7713
1014.41	37.5102
1017.3	30.391
1020.19	11.3273
1023.09	28.3739
1025.98	40.8978
1028.87	13.1766
1031.76	21.6064
1034.66	19.9664
1037.55	20.8544
1040.44	8.11067
1043.34	27.0293
1046.23	10.6972
1049.12	6.06064
1052.01	4.13807
1054.9	39.489
1057.8	14.9613
1060.69	16.9578
1063.58	25.3046
1066.48	25.8872
1069.37	4.18374
1072.26	35.5324
1075.15	12.5155
1078.05	12.2549
1080.94	36.4019
1083.83	41.5977
1086.72	24.976
1089.62	2.31704
1092.51	18.1759
1095.4	28.9956
1098.3	13.5568
1101.19	22.0127
1104.08	20.8964
1106.97	28.3536
1109.87	31.2248
1112.76	38.0694
1115.65	26.1194
1118.55	23.6922
1121.44	17.4022
1124.33	14.9156
1127.22	34.7161
1130.12	17.9942
1133.01	0.366567
1135.9	30.4941
1138.79	9.44798
1141.69	7.3066
1144.58	20.6058
1147.47	36.1317
1150.36	28.7677
1153.26	31.9888
1156.15	20.5108
1159.04	7.2225
1161.93	23.4579
1164.83	29.6072
1167.72	35.5705
1170.61	24.3105
1173.51	36.9192
1176.4	32.7902
1179.29	25.6156
1182.18	31.182
1185.08	42.0442
1187.97	30.4362
1190.86	11.9336
1193.76	42.8827
1196.65	33.1883
1199.54	31.3918
1202.43	15.7032
1205.33	20.4745
1208.22	0.039252
1211.11	36.5014
1214	44.0637
1216.9	12.8082
1219.79	26.0522
1222.68	4.52179
1225.58	6.68192
1228.47	22.0493
1231.36	24.7122
1234.25	28.7375
1237.14	27.1913
1240.04	19.8697
1242.93	6.14041
1245.82	0.797506
1248.72	20.142
1251.61	11.2975
1254.5	5.84963
1257.39	6.46627
1260.29	16.3898
1263.18	20.4012
1266.07	12.7178
1268.96	7.71223
