Measurement: Raman, 785 nm, unoriented, Raman Data Processed
Mineral: Kozoite-(Nd)
Rruff sample: R060996
Ideal chemistry: NdCO_3_(OH)
Locality: Mitsukoshi, Hizen-cho, Karatsu City, Saga Prefecture, Japan
Source: Marcus Origlieri
Description: Pink sphere, radially zoned with kozoite-(La). The kozoite-(Nd) is distinguished from kozoite-(La) by being pinker in color.
Raman shift (cm-1)	intensity
117.189	0
120.082	76.0512
122.974	57.8514
125.867	163.289
128.76	533.948
131.653	452.196
134.545	153.642
137.438	126.062
140.331	14.4297
143.223	623.319
146.116	1314.97
149.009	1672.18
151.901	1515.85
154.794	1180.16
157.687	981.864
160.579	1088.04
163.472	1280.11
166.365	1478.31
169.258	1560.49
172.15	1519.23
175.043	1461.04
177.936	1260.12
180.828	1249.3
183.721	1242.61
186.614	1212.99
189.506	1120.5
192.399	999.541
195.292	967.91
198.185	884.948
201.077	884.901
203.97	818.668
206.863	838.565
209.755	866.485
212.648	1049.76
215.541	1306.86
218.433	1597.38
221.326	2028.24
224.219	2397.53
227.112	2802.46
230.004	3165.42
232.897	3610.29
235.79	4054.9
238.682	4501.36
241.575	4871.87
244.468	5314.26
247.36	5563.87
250.253	5719.42
253.146	5941.7
256.038	6007.69
258.931	5979.15
261.824	5778.75
264.717	5356.99
267.609	4886.33
270.502	4357.96
273.395	3841.1
276.287	3309.37
279.18	2912.45
282.073	2391.58
284.966	2054.89
287.858	1583.06
290.751	1079.1
293.644	763.997
296.536	423.858
299.429	270.632
302.322	184.011
305.214	89.3193
308.107	61.5879
311	72.2197
313.892	165.668
316.785	149.612
319.678	166.023
322.571	41.1641
325.463	79.4482
328.356	180.893
331.249	242.731
334.141	261.03
337.034	286.989
339.927	304.572
342.82	375.562
345.712	550.508
348.605	676.889
351.498	757.453
354.39	842.887
357.283	832.261
360.176	786.216
363.068	800.837
365.961	695.588
368.854	726.738
371.747	735.68
374.639	712.858
377.532	635.196
380.425	482.841
383.317	318.674
386.21	213.996
389.103	249.138
391.995	156.847
394.888	198.163
397.781	191.192
400.673	135.88
403.566	84.5898
406.459	66.3848
409.351	7.01856
412.244	12.5664
415.137	95.1943
418.03	84.4932
420.922	147.068
423.815	117.619
426.708	39.7988
429.6	57.583
432.493	30.4473
435.386	93.8281
438.279	10.4043
441.171	113.426
444.064	105.368
446.957	86.1084
449.849	34.0459
452.742	5.62402
455.635	59.3506
458.527	59.4766
461.42	15.3232
464.313	49.0869
467.205	7.17871
470.098	23.5088
472.991	12.8262
475.884	3.65918
478.776	10.6963
481.669	155.112
484.562	258.823
487.454	476.287
490.347	660.05
493.24	774.036
496.132	845.821
499.025	957.073
501.918	1218.15
504.811	1348.56
507.703	1538.69
510.596	1767.57
513.489	1948.1
516.381	1996.9
519.274	2132.78
522.167	2256.65
525.059	2321.34
527.952	2293.04
530.845	2351.14
533.737	2362.31
536.63	2402.37
539.523	2451.6
542.416	2263.37
545.308	2185.89
548.201	2114.27
551.094	1846.67
553.986	1844.27
556.879	1694.75
559.772	1642.5
562.665	1485.64
565.557	1311.39
568.45	1133.12
571.343	936.804
574.235	837.087
577.128	722.182
580.021	689.895
582.913	583.976
585.806	608.681
588.699	471.054
591.591	366.153
594.484	331.225
597.377	202.302
600.27	240.56
603.162	221.649
606.055	164.611
608.948	142.237
611.84	128.803
614.733	209.035
617.626	260.418
620.519	218.106
623.411	440.068
626.304	491.022
629.197	479.755
632.089	604.487
634.982	624.847
637.875	589.125
640.767	587.562
643.66	563.459
646.553	471.969
649.446	438.494
652.338	388.029
655.231	398.012
658.124	334.884
661.016	239.128
663.909	157.797
666.802	53.3618
669.694	0.413574
672.587	9.35498
675.48	39.8413
678.372	44.1831
681.265	84.8628
684.158	66.1763
687.051	68.2139
689.943	41.1753
692.836	87.1787
695.729	190.768
698.621	420.119
701.514	478.049
704.407	328.009
707.299	230.726
710.192	298.273
713.085	319.953
715.977	388.253
718.87	484.143
721.763	594.041
724.656	647.64
727.548	651.779
730.441	509.479
733.334	400.36
736.226	349.593
739.119	285.521
742.012	277.349
744.904	163.983
747.797	194.339
750.69	89.6653
753.583	82.926
756.475	103.943
759.368	85.2507
762.261	86.6816
765.153	114.681
768.046	69.8621
770.939	94.4919
773.832	89.5837
776.724	31.8318
779.617	87.7419
782.51	86.2529
785.402	104.273
788.295	131.743
791.188	127.858
794.08	128.403
796.973	101.954
799.866	79.5886
802.759	71.5649
805.651	94.8782
808.544	76.5034
811.437	131.267
814.329	67.8066
817.222	95.7817
820.115	58.334
823.007	43.4133
825.9	32.5898
828.793	18.4219
831.686	10.616
834.578	25.5166
837.471	29.0176
840.364	38.7053
843.256	13.7295
846.149	6.52539
849.042	13.1958
851.934	16.5186
854.827	6.59375
857.72	2.44751
860.612	0.443359
863.505	15.4915
866.398	10.4641
869.29	12.5962
872.183	17.5684
875.076	17.9651
877.969	9.4126
880.861	28.6321
883.754	3.16065
886.647	23.1743
889.539	56.7693
892.432	42.675
895.325	64.2556
898.217	32.9543
901.11	48.9858
904.003	42.1397
906.896	40.2231
909.788	98.9324
912.681	129.065
915.574	79.5134
918.466	127.176
921.359	130.232
924.252	132.381
927.144	104.251
930.037	118.466
932.93	88.7943
935.823	122.329
938.715	141.105
941.608	116.378
944.501	120.923
947.393	141.821
950.286	101.565
953.179	105.466
956.072	109.933
958.964	107.4
961.857	133.922
964.75	115.575
967.642	119.506
970.535	129.944
973.428	157.059
976.32	166.018
979.213	121.071
982.106	163.312
984.999	119.301
987.891	170.859
990.784	154.856
993.677	176.147
996.569	148.159
999.462	145.322
1002.36	183.219
1005.25	145.569
1008.14	186.749
1011.03	161.252
1013.92	151.461
1016.82	149.198
1019.71	181.073
1022.6	157.521
1025.5	154.156
1028.39	158.838
1031.28	149.23
1034.17	173.551
1037.07	183.802
1039.96	158.733
1042.85	196.646
1045.74	185.815
1048.64	177.133
1051.53	208.885
1054.42	184.584
1057.32	182.028
1060.21	182.387
1063.1	190.124
1065.99	182.531
1068.89	338.587
1071.78	582.822
1074.67	1024.56
1077.57	1800.67
1080.46	2777.66
1083.35	4077.47
1086.24	4776.23
1089.14	5380.31
1092.03	6440.42
1094.92	7988.35
1097.81	9635.84
1100.71	11448.1
1103.6	13594.7
1106.49	15672.8
1109.38	18089.7
1112.28	20378.9
1115.17	22660
1118.06	24935.9
1120.95	26963.5
1123.85	28851.6
1126.74	30633.6
1129.63	32149.2
1132.53	32907.4
1135.42	33268.9
1138.31	33176.8
1141.2	32603.6
1144.1	31506
1146.99	30123.2
1149.88	27936.3
1152.78	25770.6
1155.67	23041.8
1158.56	20478.9
1161.45	17494.2
1164.35	14474.8
1167.24	11370.2
1170.13	8611.48
1173.02	5923.83
1175.92	3716.37
1178.81	2002.6
1181.7	625.414
1184.6	67.9922
1187.49	134.801
