Measurement: Raman, 785 nm, unoriented, Raman Data Processed
Mineral: Kozoite-(La)
Rruff sample: R060995
Ideal chemistry: LaCO_3_(OH)
Locality: Mitsukoshi, Hizen-cho, Karatsu City, Saga Prefecture, Japan
Source: Marcus Origlieri
Description: Pink spheres, radially zoned with kozoite-(Nd). Surface of spheres are reported to be kozoite-(Nd). Kozoite-(La) are distinguished from kozoite-(Nd) by being closer to white.
Raman shift (cm-1)	intensity
88.7441	0
92.119	99.4128
95.4938	143.91
98.8686	266.353
102.243	388.31
105.618	542.309
108.993	580.127
112.368	415.344
115.743	162.456
119.118	8.70013
122.492	3.79578
125.867	95.5525
129.242	82.4998
132.617	124.377
135.992	33.1597
139.366	18.6378
142.741	106.615
146.116	673.339
149.491	1065.63
152.866	1116.7
156.24	932.888
159.615	941.075
162.99	957.99
166.365	1076.52
169.74	1182.67
173.114	1193.18
176.489	1139.11
179.864	998.188
183.239	1025.86
186.614	891.25
189.989	913.12
193.363	928.024
196.738	955.967
200.113	1020.71
203.488	952.806
206.863	825.256
210.238	933.968
213.612	961.423
216.987	1099.24
220.362	1281.12
223.737	1524.14
227.112	1850.38
230.486	1905.62
233.861	2098.18
237.236	2301.2
240.611	2526.47
243.986	2796.65
247.36	2693.55
250.735	2746.57
254.11	2705.01
257.485	2586.03
260.86	2405.17
264.235	2288.55
267.609	1932.44
270.984	1617.51
274.359	1301.93
277.734	1003.95
281.109	887.45
284.483	519.245
287.858	91.1773
291.233	39.1089
294.608	137.728
297.983	80.144
301.358	141.699
304.732	96.0195
308.107	167.093
311.482	23.5161
314.857	0.276855
318.231	32.0767
321.606	87.4214
324.981	12.2427
328.356	160.94
331.731	143.88
335.106	85.292
338.48	0.567871
341.855	111.784
345.23	173.664
348.605	206.028
351.98	195.44
355.354	346.751
358.729	212.487
362.104	135.134
365.479	149.37
368.854	212.831
372.229	264.435
375.603	347.994
378.978	229.909
382.353	278.72
385.728	143.725
389.103	100.135
392.478	187.699
395.852	68.5063
399.227	46.8169
402.602	137.873
405.977	20.9531
409.352	7.16553
412.726	27.9458
416.101	78.7334
419.476	26.7334
422.851	70.0102
426.226	152.809
429.6	24.0933
432.975	23.9375
436.35	146.155
439.725	81.0854
443.1	115.665
446.474	241.533
449.849	262.402
453.224	135.806
456.599	118.897
459.974	202.525
463.349	155.092
466.723	229.874
470.098	318.053
473.473	222.592
476.848	269.974
480.223	364.831
483.598	404.191
486.972	531.907
490.347	631.267
493.722	607.7
497.097	673.314
500.472	642.352
503.846	781.199
507.221	789.654
510.596	871.687
513.971	975.157
517.346	967.884
520.721	1019.56
524.095	990.398
527.47	1001.73
530.845	820.54
534.22	628.886
537.595	923.779
540.969	987.923
544.344	946.061
547.719	711.797
551.094	716.732
554.469	593.071
557.843	673.859
561.218	448.66
564.593	255.519
567.968	70.6387
571.343	209.816
574.717	150.484
578.092	127.063
581.467	143.407
584.842	40.0054
588.217	28.8359
591.592	35.3018
594.966	71.3506
598.341	67.6821
601.716	0.620117
605.091	60.4375
608.466	185.121
611.841	138.612
615.215	354.667
618.59	283.054
621.965	417.508
625.34	400.872
628.715	396.971
632.089	323.593
635.464	415.5
638.839	318.471
642.214	387.97
645.589	293.269
648.963	230.759
652.338	220.55
655.713	79.0942
659.088	210.944
662.463	31.8638
665.837	11.6814
669.212	26.8733
672.587	11.7383
675.962	48.6934
679.337	50.0183
682.712	56.4617
686.086	127.429
689.461	111.297
692.836	185.499
696.211	315.349
699.586	424.892
702.96	657.774
706.335	473.458
709.71	284.246
713.085	293.433
716.46	470.517
719.835	449.875
723.209	540.888
726.584	655.918
729.959	458.642
733.334	388.236
736.709	218.915
740.083	203.794
743.458	57.4274
746.833	97.3225
750.208	120.584
753.583	195.515
756.957	121.947
760.332	21.2412
763.707	84.6834
767.082	22.385
770.457	59.7548
773.832	178.929
777.206	177.705
780.581	161.081
783.956	218.323
787.331	247.101
790.706	271.403
794.08	170.618
797.455	46.8267
800.83	72.2041
804.205	193.157
807.58	218.099
810.955	212.327
814.329	154.032
817.704	102.634
821.079	161.632
824.454	72.0958
827.829	91.0326
831.203	152.615
834.578	112.612
837.953	29.6314
841.328	46.9453
844.703	125.728
848.077	147.021
851.452	252.108
854.827	20.899
858.202	46.0037
861.577	42.5615
864.952	192.249
868.326	175.16
871.701	43.3198
875.076	103.588
878.451	49.9415
881.826	100.516
885.2	21.7179
888.575	66.61
891.95	129.492
895.325	18.901
898.7	57.995
902.074	69.7253
905.449	94.2374
908.824	92.7927
912.199	127.722
915.574	4.23193
918.949	24.5977
922.323	26.2662
925.698	82.1699
929.073	108.418
932.448	186.334
935.823	174.619
939.197	238.275
942.572	159.605
945.947	273.347
949.322	247.691
952.697	150.89
956.072	262.722
959.446	326.916
962.821	341.201
966.196	504.56
969.571	490.524
972.946	386.254
976.32	461.45
979.695	309.72
983.07	570.713
986.445	414.766
989.82	246.644
993.194	187.689
996.569	581.995
999.944	660.871
1003.32	783.807
1006.69	839.185
1010.07	758.93
1013.44	882.397
1016.82	845.588
1020.19	840.537
1023.57	561.436
1026.94	570.29
1030.32	670.438
1033.69	560.848
1037.07	598.619
1040.44	341.238
1043.82	93.7041
1047.19	191.459
1050.57	42.5244
1053.94	69.2588
1057.32	183.207
1060.69	131.463
1064.07	286.9
1067.44	228.374
1070.82	2.94238
1074.19	210.324
1077.57	770.453
1080.94	1367.34
1084.31	2382.54
1087.69	2985.09
1091.06	3430.05
1094.44	3744.04
1097.81	4638.95
1101.19	5987.36
1104.56	7628.15
1107.94	9682
1111.31	11775.2
1114.69	14313.7
1118.06	17299.3
1121.44	20051.2
1124.81	23138.5
1128.19	26250.3
1131.56	29339.6
1134.94	32572.9
1138.31	35327.4
1141.69	37615.1
1145.06	39377.6
1148.44	40100.3
1151.81	39853.1
1155.19	38023.3
1158.56	35553.6
1161.93	32304.7
1165.31	28329.7
1168.68	23760
1172.06	19237.8
1175.43	14739.4
1178.81	10438.6
1182.18	7061.8
1185.56	4159.07
1188.93	1966.07
1192.31	704.852
1195.68	208.613
1199.06	398.371
1202.43	601.391
1205.81	322.785
1209.18	858.574
1212.56	1100.07
1215.93	2199.58
1219.31	2836.79
1222.68	3436.71
1226.06	3582.15
1229.43	3342.58
1232.81	3081.5
1236.18	1976.94
1239.56	961.523
1242.93	453.641
1246.31	406.648
1249.68	98.0859
1253.06	156.758
1256.43	108.469
1259.81	569.867
1263.18	738.25
1266.56	406.484
1269.93	84.9922
