Measurement: Raman, 780 nm, unoriented, Raman Data RAW
Mineral: Krinovite
Rruff sample: R140079
Ideal chemistry: Na_4_(Mg_8_Cr^3+^_4_)O_4_[Si_12_O_36_]
Locality: Wichita County Meteorite, Wichita County, Texas, USA
Source: Rock Currier
Description: Broken pieces of green crystals.
Raman shift (cm-1)	intensity
88.0644	1866.14
91.4393	2335.8
94.8141	3044.23
98.1889	3142.45
101.564	3205.92
104.939	3243.93
108.313	3296.91
111.688	3330.33
115.063	3356.32
118.438	3382.48
121.813	3406.33
125.187	3420.68
128.562	3440.04
131.937	3458.09
135.312	3488.1
138.687	3507.41
142.061	3538.02
145.436	3566.18
148.811	3597.28
152.186	3618
155.561	3640.19
158.936	3663.89
162.31	3683.24
165.685	3694.48
169.06	3707.85
172.435	3729.58
175.81	3755.22
179.185	3777.81
182.559	3797.26
185.934	3822.32
189.309	3840.7
192.684	3852.85
196.059	3888.89
199.433	3898.53
202.808	3924.08
206.183	3943.43
209.558	3963.64
212.933	3987.56
216.308	4006.91
219.682	4020.69
223.057	4045.14
226.432	4063.41
229.807	4082.08
233.182	4102.4
236.556	4125.86
239.931	4137.94
243.306	4150.06
246.681	4175.58
250.056	4195.76
253.43	4215.8
256.805	4240.69
260.18	4261.69
263.555	4282.2
266.93	4311.08
270.305	4324.01
273.679	4359.68
277.054	4373.01
280.429	4389.25
283.804	4411.51
287.179	4419.36
290.553	4451.31
293.928	4469.73
297.303	4481.06
300.678	4508.11
304.053	4535.94
307.428	4547.32
310.802	4571.4
314.177	4585.21
317.552	4606.39
320.927	4630.81
324.302	4645.04
327.676	4662.61
331.051	4687.11
334.426	4715.02
337.801	4719.11
341.176	4746.85
344.551	4767.16
347.925	4795.17
351.3	4818.78
354.675	4843.14
358.05	4866.72
361.425	4880.35
364.8	4903.29
368.174	4928.76
371.549	4926.99
374.924	4941.51
378.299	4973.65
381.674	4975.03
385.048	4993.85
388.423	5006.17
391.798	5032.72
395.173	5042.45
398.548	5065.47
401.923	5085.79
405.297	5083.36
408.672	5105.95
412.047	5121.69
415.422	5141.58
418.796	5173.74
422.171	5182.64
425.546	5208.65
428.921	5217.98
432.296	5232.47
435.671	5257.35
439.045	5285.88
442.42	5288.25
445.795	5296.56
449.17	5321.66
452.545	5338.06
455.92	5363.58
459.294	5368.89
462.669	5381.6
466.044	5397.88
469.419	5412.47
472.794	5424.14
476.168	5441.3
479.543	5454.17
482.918	5457.27
486.293	5466.04
489.668	5484.29
493.043	5500.86
496.417	5504.92
499.792	5517.07
503.167	5525.29
506.542	5527.43
509.917	5536.28
513.291	5556.17
516.666	5569.02
520.041	5584.2
523.416	5607.93
526.791	5607.19
530.165	5627.31
533.54	5630.96
536.915	5654.31
540.29	5669.41
543.665	5707.69
547.04	5698.85
550.414	5728.44
553.789	5728.49
557.164	5747.46
560.539	5759.36
563.914	5781.76
567.288	5800.38
570.663	5825.01
574.038	5849.44
577.413	5876.45
580.788	5898.48
584.163	5918.85
587.537	5941.2
590.912	5957.28
594.287	5973.22
597.662	5981.6
601.037	6024.49
604.412	6054.12
607.786	6062.27
611.161	6068.55
614.536	6091.2
617.911	6124.12
621.286	6145.75
624.66	6156.58
628.035	6189.81
631.41	6227.88
634.785	6254.25
638.16	6279.39
641.534	6276.39
644.909	6292.85
648.284	6326.05
651.659	6337.23
655.034	6372.53
658.409	6390.52
661.783	6414.48
665.158	6441.17
668.533	6443.33
671.908	6468.62
675.283	6494.32
678.658	6520.52
682.032	6533.62
685.407	6558.51
688.782	6575.71
692.157	6616.91
695.532	6634.55
698.906	6656.11
702.281	6664.58
705.656	6689.6
709.031	6725.31
712.406	6759.79
715.78	6775.39
719.155	6791.57
722.53	6823.87
725.905	6882.78
729.28	6891.92
732.654	6906.66
736.029	6928.78
739.404	6942.46
742.779	6987.35
746.154	7001.87
749.529	7026.07
752.903	7041.51
756.278	7059.35
759.653	7102.15
763.028	7124.96
766.403	7139.26
769.778	7164.7
773.152	7175.76
776.527	7217.94
779.902	7224.36
783.277	7257.58
786.652	7271.77
790.026	7302.27
793.401	7331.73
796.776	7348.34
800.151	7368.76
803.526	7411.43
806.9	7437.27
810.275	7454.61
813.65	7489.62
817.025	7505.24
820.4	7531.05
823.775	7543.38
827.149	7582.85
830.524	7585.31
833.899	7634.87
837.274	7685.1
840.649	7693.87
844.024	7729.96
847.398	7745.58
850.773	7777.95
854.148	7796.13
857.523	7825.31
860.898	7845.42
864.272	7862.82
867.647	7902.61
871.022	7926.93
874.397	7945.96
877.772	7971.02
881.146	8010.7
884.521	8046.05
887.896	8066.41
891.271	8110.89
894.646	8105.19
898.021	8152.36
901.395	8182.79
904.77	8236.59
908.145	8261.85
911.52	8284.24
914.895	8321.16
918.269	8348.91
921.644	8374.3
925.019	8428.3
928.394	8468
931.769	8485.36
935.144	8524.57
938.518	8550.77
941.893	8608.81
945.268	8640.26
948.643	8680.26
952.018	8717.57
955.393	8751.6
958.767	8789.09
962.142	8822.71
965.517	8861.9
968.892	8910.25
972.266	8939.39
975.641	8970.11
979.016	9028.31
982.391	9061.57
985.766	9099.1
989.141	9136.45
992.515	9192.5
995.89	9216.9
999.265	9243.42
1002.64	9287.03
1006.01	9327.51
1009.39	9337.91
1012.76	9396.3
1016.14	9424.86
1019.51	9462.11
1022.89	9501.95
1026.26	9539.16
1029.64	9574.56
1033.01	9620.73
1036.39	9642.56
1039.76	9663.11
1043.14	9701.01
1046.51	9735.78
1049.89	9775.41
1053.26	9819.84
1056.64	9837.96
1060.01	9895.06
1063.39	9916.31
1066.76	9938.12
1070.14	9975.32
1073.51	10026
1076.89	10051.7
1080.26	10093.2
1083.63	10114.5
1087.01	10144.1
1090.38	10167.6
1093.76	10189.7
1097.13	10253.6
1100.51	10256.4
1103.88	10294.5
1107.26	10321.4
1110.63	10345
1114.01	10370.3
1117.38	10403
1120.76	10462
1124.13	10498.2
1127.51	10532.4
1130.88	10575.8
1134.26	10611.5
1137.63	10670.4
1141.01	10688.9
1144.38	10766
1147.76	10789.3
1151.13	10829.5
1154.51	10876.3
1157.88	10923.8
1161.26	10970.4
1164.63	11005.9
1168.01	11071
1171.38	11109.2
1174.76	11161.5
1178.13	11205.6
1181.51	11227.5
1184.88	11276.4
1188.26	11342.8
1191.63	11352.2
1195.01	11427.1
1198.38	11469.9
1201.75	11503.5
1205.13	11558.2
1208.5	11590.6
1211.88	11631.1
1215.25	11678.1
1218.63	11719.7
1222	11763.6
1225.38	11818.4
1228.75	11869.1
1232.13	11898.5
1235.5	11953.3
1238.88	11994.5
1242.25	12034.2
1245.63	12076.8
1249	12128.5
1252.38	12196.7
1255.75	12251.2
1259.13	12297.9
1262.5	12368.1
1265.88	12435.9
1269.25	12510.7
1272.62	12554.3
1276	12601.7
1279.38	12641.7
