Measurement: Raman, 532 nm, unoriented, Raman Data RAW
Mineral: Krinovite
Rruff sample: R140079
Ideal chemistry: Na_4_(Mg_8_Cr^3+^_4_)O_4_[Si_12_O_36_]
Locality: Wichita County Meteorite, Wichita County, Texas, USA
Source: Rock Currier
Description: Broken pieces of green crystals.
Raman shift (cm-1)	intensity
88.1367	493.667
91.5115	554.011
94.8863	603.949
98.2612	664.793
101.636	750.761
105.011	846.686
108.386	946.67
111.76	1041.63
115.135	1118.97
118.51	1190.17
121.885	1249.95
125.26	1308.75
128.635	1368.18
132.009	1432.21
135.384	1495.36
138.759	1542.55
142.134	1574.73
145.509	1580.08
148.883	1579.94
152.258	1584.59
155.633	1581.93
159.008	1587.9
162.383	1590.64
165.757	1592.3
169.132	1599.31
172.507	1596.7
175.882	1610.91
179.257	1620.32
182.632	1626.95
186.006	1626.76
189.381	1628.71
192.756	1635.66
196.131	1644.59
199.506	1645.15
202.881	1654.46
206.255	1651.77
209.63	1658.15
213.005	1664.93
216.38	1666.48
219.755	1676.05
223.129	1672.17
226.504	1674.72
229.879	1678.24
233.254	1688.72
236.629	1697.09
240.004	1702.8
243.378	1695.74
246.753	1699.12
250.128	1705.39
253.503	1723.41
256.878	1724.64
260.252	1732.4
263.627	1731.63
267.002	1741.31
270.377	1741.02
273.752	1752.75
277.127	1753.62
280.501	1750.24
283.876	1759.89
287.251	1761.44
290.626	1763.94
294.001	1758.48
297.375	1765.81
300.75	1776.98
304.125	1782.5
307.5	1778.45
310.875	1781.9
314.25	1780.59
317.624	1791.45
320.999	1792.6
324.374	1799.41
327.749	1806.41
331.124	1800.37
334.498	1805.25
337.873	1813.27
341.248	1811.63
344.623	1812.72
347.998	1823.46
351.373	1826.32
354.747	1827.78
358.122	1832.65
361.497	1830.93
364.872	1833.99
368.247	1837.66
371.621	1840.57
374.996	1842.23
378.371	1843.1
381.746	1848.18
385.121	1845.2
388.495	1846.86
391.87	1854.13
395.245	1862.73
398.62	1869.11
401.995	1863.5
405.37	1857.18
408.744	1864.95
412.119	1871.58
415.494	1871.4
418.869	1880.65
422.244	1875.64
425.618	1883.23
428.993	1885.31
432.368	1888.03
435.743	1880.37
439.118	1882.67
442.493	1888.85
445.867	1896.37
449.242	1900.95
452.617	1897.12
455.992	1910.63
459.367	1912.12
462.741	1908.55
466.116	1902.7
469.491	1905.24
472.866	1914.82
476.241	1911.93
479.615	1914.8
482.99	1917.65
486.365	1919.78
489.74	1934.71
493.115	1925.13
496.49	1927.03
499.864	1929.92
503.239	1942.49
506.614	1936.59
509.989	1937.6
513.364	1945.57
516.739	1940.7
520.113	1942.07
523.488	1948
526.863	1944.65
530.238	1956.43
533.613	1954.62
536.987	1954.3
540.362	1952.92
543.737	1957.42
547.112	1958.03
550.487	1957.82
553.861	1957.33
557.236	1969.1
560.611	1965.04
563.986	1964.46
567.361	1969.37
570.736	1969.86
574.11	1973.84
577.485	1973.1
580.86	1970.58
584.235	1974.59
587.61	1969.77
590.985	1971.23
594.359	1969.04
597.734	1968.35
601.109	1962.68
604.484	1971.71
607.859	1969.13
611.233	1970.39
614.608	1959.73
617.983	1964.82
621.358	1959.07
624.733	1961.08
628.107	1958.49
631.482	1964.58
634.857	1960.58
638.232	1965.87
641.607	1957.45
644.982	1960.75
648.356	1967.51
651.731	1964.81
655.106	1964.4
658.481	1967.95
661.856	1963.36
665.231	1962.1
668.605	1963.04
671.98	1965.14
675.355	1963.42
678.73	1966.13
682.105	1966.4
685.479	1970.2
688.854	1976.89
692.229	1975.75
695.604	1980.29
698.979	1986.16
702.354	1976.65
705.728	1978.78
709.103	1979.09
712.478	1974.24
715.853	1979.94
719.227	1981.93
722.602	1981.35
725.977	1977.67
729.352	1982.14
732.727	1986.55
736.102	1988.76
739.476	1987.9
742.851	1989.53
746.226	1990.76
749.601	1997.02
752.976	1989.66
756.351	1987.64
759.725	1988.05
763.1	1988.69
766.475	1989.45
769.85	1999.99
773.225	2001.08
776.599	2005.01
779.974	2005.92
783.349	2004.1
786.724	1997.68
790.099	2000.59
793.473	2002.54
796.848	1998.49
800.223	2007.12
803.598	2010.27
806.973	2008.21
810.348	2008.64
813.722	2005.81
817.097	2010.31
820.472	2013.35
823.847	2007.39
827.222	2005.63
830.597	2009.14
833.971	2008.5
837.346	2013.33
840.721	2015.67
844.096	2009.39
847.471	2005.94
850.846	2019.82
854.22	2007.96
857.595	2013.04
860.97	2011.45
864.345	2018.19
867.72	2016.81
871.094	2017.85
874.469	2010.02
877.844	2007.38
881.219	2012.94
884.594	2014.16
887.968	2013.17
891.343	2018.57
894.718	2020.1
898.093	2026.72
901.468	2023.35
904.842	2022.29
908.217	2028.87
911.592	2025.45
914.967	2027.07
918.342	2027.92
921.717	2022.79
925.091	2028.92
928.466	2031.05
931.841	2028.39
935.216	2028.68
938.591	2027.96
941.966	2028.5
945.34	2028.72
948.715	2028.85
952.09	2023.48
955.465	2022.88
958.84	2030.44
962.214	2030.93
965.589	2028.59
968.964	2029.5
972.339	2034.56
975.714	2033.52
979.088	2032.27
982.463	2033.67
985.838	2027.13
989.213	2030.37
992.588	2029.65
995.963	2035.39
999.337	2031.24
1002.71	2031.13
1006.09	2032.89
1009.46	2032.84
1012.84	2039.88
1016.21	2034.23
1019.59	2035.84
1022.96	2026.8
1026.34	2038.67
1029.71	2044.64
1033.09	2040.39
1036.46	2034.53
1039.84	2035.09
1043.21	2049.03
1046.59	2047.77
1049.96	2048.49
1053.33	2044.95
1056.71	2048.89
1060.08	2050.28
1063.46	2047.6
1066.83	2046.45
1070.21	2049.3
1073.58	2054.42
1076.96	2048.86
1080.33	2047.6
1083.71	2054.91
1087.08	2053.38
1090.46	2054.66
1093.83	2052.57
1097.21	2049.01
1100.58	2051.11
1103.96	2051.32
1107.33	2051.68
1110.71	2055.78
1114.08	2056.72
1117.46	2059.53
1120.83	2055.19
1124.21	2051.74
1127.58	2053.3
1130.95	2050.83
1134.33	2057.51
1137.7	2067.96
1141.08	2061.25
1144.45	2066.97
1147.83	2064.16
1151.2	2066.27
1154.58	2074.09
1157.95	2075.14
1161.33	2078.71
1164.7	2079.45
1168.08	2085.49
1171.45	2075.79
1174.83	2080.69
1178.2	2086.29
1181.58	2081.83
1184.95	2088.79
1188.33	2088.29
1191.7	2091.31
1195.08	2097.2
1198.45	2098.52
1201.83	2094.89
1205.2	2096.95
1208.58	2092.02
1211.95	2101.54
1215.33	2099.24
1218.7	2102.93
1222.08	2098.81
1225.45	2101.62
1228.83	2099.48
1232.2	2102.11
1235.58	2098.48
1238.95	2101.85
1242.32	2097.77
1245.7	2102.95
1249.07	2110.07
1252.45	2108.18
1255.82	2110.5
1259.2	2105.95
1262.57	2106.43
1265.95	2105.52
1269.32	2106.01
1272.7	2110.76
1276.07	2106.41
1279.45	2111.79
1282.82	2114.72
1286.2	2114.25
1289.57	2116.12
1292.95	2114.97
1296.32	2117.7
1299.7	2119.33
