Measurement: Raman, 780 nm, unoriented, Raman Data Processed
Mineral: Krohnkite
Rruff sample: R050604
Ideal chemistry: Na_2_Cu^2+^(S^6+^O_4_)_2_2H_2_O
Locality: Chuquicamata, Chile
Source: University of Arizona Mineral Museum
Description: Green elongated prismatic crystals with orange natrojarosite and minor colorless leightonite
Measured chemistry: Na_2.00_Cu_1.00_(S_1.00_O_4_)_2_Â·2H_2_O
Raman shift (cm-1)	intensity
149.919	0
152.812	0.931755
155.705	1.70273
158.597	1.84404
161.49	2.54087
164.383	0.329788
167.276	0.413971
170.168	1.04563
173.061	1.56743
175.954	4.29458
178.846	2.49643
181.739	0.287231
184.632	0.801628
187.524	1.71952
190.417	2.89731
193.31	2.37596
196.203	0.518021
199.095	2.33462
201.988	0.696884
204.881	0.463554
207.773	3.79337
210.666	2.22745
213.559	2.35329
216.451	2.30599
219.344	1.71687
222.237	2.47015
225.13	1.55166
228.022	0.187988
230.915	0.990265
233.808	1.78333
236.7	0.060493
239.593	0.9506
242.486	2.33403
245.378	2.98795
248.271	0.78376
251.164	2.38674
254.056	2.17657
256.949	2.9868
259.842	2.27328
262.735	3.90271
265.627	2.87784
268.52	3.44179
271.413	3.26144
274.305	4.20054
277.198	3.54362
280.091	3.40828
282.983	6.27068
285.876	5.38502
288.769	3.96319
291.662	3.21551
294.554	5.79426
297.447	7.99644
300.34	5.62679
303.232	2.60298
306.125	1.62403
309.018	2.72312
311.911	1.59689
314.803	1.01828
317.696	0.240593
320.589	3.63872
323.481	2.23061
326.374	1.85364
329.267	1.19602
332.159	0.316238
335.052	2.61125
337.945	0.675529
340.837	1.52142
343.73	2.87496
346.623	2.15582
349.516	2.14292
352.408	2.1137
355.301	2.13329
358.194	0.919037
361.086	1.26749
363.979	2.99109
366.872	1.87442
369.764	1.52779
372.657	3.67867
375.55	1.08475
378.442	0.941933
381.335	1.56449
384.228	0.4291
387.121	2.8135
390.013	1.58521
392.906	0.272141
395.799	0.046463
398.691	2.02856
401.584	1.36388
404.477	0.358368
407.37	1.90648
410.262	2.41404
413.155	2.94727
416.048	1.7167
418.94	2.15629
421.833	4.07877
424.726	2.80763
427.618	5.72385
430.511	4.95811
433.404	4.72399
436.296	2.30952
439.189	4.33372
442.082	4.89967
444.975	5.33798
447.867	4.40151
450.76	6.14484
453.653	7.18495
456.545	8.40108
459.438	11.0871
462.331	11.8305
465.224	9.57359
468.116	4.5353
471.009	3.46083
473.902	2.82046
476.794	1.24692
479.687	1.98413
482.58	2.58601
485.472	1.63113
488.365	0.141762
491.258	1.72488
494.151	0.480835
497.043	0.279579
499.936	0.478035
502.829	1.76907
505.721	2.78544
508.614	0.162819
511.507	1.50533
514.399	0.87059
517.292	0.947304
520.185	1.44327
523.077	0.657295
525.97	0.582603
528.863	2.79997
531.756	4.22477
534.648	2.97864
537.541	1.84071
540.434	3.19932
543.326	1.56367
546.219	1.81928
549.112	0.598526
552.004	2.15482
554.897	2.02077
557.79	1.42033
560.683	1.83873
563.575	2.56382
566.468	2.4214
569.361	3.14007
572.253	1.83185
575.146	2.21849
578.039	2.3419
580.931	2.10673
583.824	0.641579
586.717	0.120453
589.61	1.66549
592.502	0.014782
595.395	2.66728
598.288	1.55276
601.18	2.84489
604.073	2.49297
606.966	2.74347
609.858	4.91323
612.751	5.23869
615.644	3.20378
618.537	3.27847
621.429	2.42815
624.322	3.54155
627.215	1.90407
630.107	0.502861
633	0.680485
635.893	0.21315
638.785	1.42578
641.678	0.715572
644.571	2.76258
647.463	3.50251
650.356	2.52819
653.249	5.64343
656.141	3.65921
659.034	2.21432
661.927	1.05905
664.82	0.93095
667.712	3.49442
670.605	2.2063
673.498	3.31074
676.39	0.766579
679.283	1.83598
682.176	2.45659
685.068	2.41725
687.961	2.11365
690.854	1.22918
693.747	1.69741
696.639	2.95244
699.532	1.77645
702.425	0.375427
705.317	1.82465
708.21	2.17759
711.103	2.94568
713.995	0.715725
716.888	0.002071
719.781	1.12495
722.674	1.40607
725.566	1.59755
728.459	1.06747
731.352	3.21789
734.244	2.69556
737.137	2.65219
740.03	1.67704
742.923	1.25511
745.815	1.25343
748.708	1.43293
751.601	2.55154
754.493	0.4818
757.386	1.16018
760.279	2.67544
763.171	2.09096
766.064	2.51274
768.957	2.04279
771.85	1.39206
774.742	2.05196
777.635	1.53582
780.528	1.96206
783.42	2.04472
786.313	0.574795
789.206	0.262131
792.098	1.12853
794.991	0.13287
797.884	2.03249
800.776	2.10412
803.669	1.74167
806.562	2.25341
809.455	2.37918
812.347	1.91059
815.24	1.79517
818.133	1.77694
821.025	0.426796
823.918	3.39375
826.811	3.21322
829.703	1.69371
832.596	2.76286
835.489	2.02775
838.381	3.81487
841.274	2.09256
844.167	0.844852
847.06	3.55308
849.952	1.42641
852.845	2.10645
855.738	1.86872
858.63	3.14309
861.523	2.92533
864.416	0.272964
867.308	1.86693
870.201	2.89745
873.094	3.36485
875.987	4.65689
878.879	4.88599
881.772	3.63213
884.665	2.31951
887.557	2.42599
890.45	1.72482
893.343	1.59543
896.236	2.762
899.128	2.20701
902.021	0.330551
904.914	2.10992
907.806	1.10558
910.699	0.314934
913.592	1.57428
916.484	0.782097
919.377	1.56572
922.27	0.235806
925.163	1.27794
928.055	3.4338
930.948	1.33639
933.841	2.04243
936.733	0.142288
939.626	0.551689
942.519	1.23957
945.411	1.31532
948.304	0.525448
951.197	1.38106
954.09	0.825409
956.982	2.32437
959.875	0.608288
962.768	0.057922
965.66	0.119789
968.553	2.91265
971.446	1.52764
974.338	2.63885
977.231	4.74381
980.124	9.35077
983.016	13.9819
985.909	19.3639
988.802	32.993
991.694	37.2365
994.587	16.3004
997.48	6.98861
1000.37	3.19524
1003.26	2.85726
1006.16	0.759159
1009.05	1.41257
1011.94	0.60553
1014.84	0.124588
1017.73	1.15751
1020.62	2.41797
1023.51	1.63006
1026.41	1.50273
1029.3	1.82636
1032.19	4.0317
1035.09	3.04687
1037.98	4.41948
1040.87	9.12064
1043.76	12.754
1046.66	11.843
1049.55	11.2763
1052.44	7.44355
1055.33	3.88092
1058.23	0.090328
1061.12	1.30053
1064.01	1.31409
1066.9	1.84421
1069.8	1.39924
1072.69	1.30742
1075.58	2.71631
1078.47	1.27313
1081.37	0.896908
1084.26	1.15524
1087.15	1.77732
1090.05	1.26419
1092.94	0.080246
1095.83	1.7752
1098.72	1.8136
1101.62	1.06628
1104.51	0.607197
1107.4	0.917683
1110.3	1.02029
1113.19	0.172318
1116.08	0.651249
1118.97	3.35983
1121.87	2.38442
1124.76	2.94038
1127.65	0.029869
1130.54	6.11805
1133.44	5.47581
1136.33	5.11916
1139.22	5.26421
1142.12	4.2614
1145.01	3.28753
1147.9	2.89618
1150.79	4.45237
1153.69	3.72775
1156.58	4.42949
1159.47	3.50519
1162.36	3.85302
1165.26	4.81522
1168.15	4.85008
1171.04	1.06931
1173.93	1.1646
1176.83	3.20084
1179.72	1.66701
1182.61	0.967934
1185.51	1.97223
1188.4	2.20589
1191.29	1.892
1194.18	2.45396
1197.08	1.27636
1199.97	1.87695
1202.86	1.62974
1205.75	1.29507
1208.65	3.23162
1211.54	2.7945
1214.43	2.94722
1217.33	1.50107
1220.22	1.60335
1223.11	1.55002
1226	4.13405
1228.9	1.67893
1231.79	1.72961
1234.68	0.700935
1237.57	1.87428
1240.47	1.64189
1243.36	2.63354
1246.25	1.12826
1249.14	2.7421
1252.04	3.12912
1254.93	2.70525
1257.82	2.62728
1260.71	1.41437
1263.61	1.14611
1266.5	0.193027
1269.39	2.63436
1272.29	3.53898
1275.18	4.68474
1278.07	2.23894
1280.96	3.78106
1283.86	1.11571
