Measurement: Raman, 780 nm, unoriented, Raman Data Processed
Mineral: Krupkaite
Rruff sample: R100098
Ideal chemistry: Cu^1+^Pb^2+^Bi^3+^_3_S^2-^_6_
Locality: Julcani District, Peru
Source: Peter Megaw
Description: Bladed steel-gray metallic crystals with blue irridescence
Raman shift (cm-1)	intensity
117.567	0
120.942	1.05038
124.317	1.00593
127.692	1.88068
131.067	0.837998
134.442	0.990869
137.816	0.577989
141.191	0.932793
144.566	1.00538
147.941	0.123676
151.316	0.178599
154.69	0.89175
158.065	0.132017
161.44	0.746271
164.815	0.572234
168.19	0.176789
171.565	0.504178
174.939	0.544453
178.314	1.82361
181.689	0.926172
185.064	0.836371
188.439	1.07333
191.814	0.373584
195.188	0.266794
198.563	0.020124
201.938	0.723268
205.313	1.40402
208.688	1.05218
212.062	1.13697
215.437	1.77157
218.812	1.82823
222.187	1.12997
225.562	1.67925
228.936	2.42604
232.311	2.39254
235.686	0.680467
239.061	1.56074
242.436	2.43845
245.811	2.85672
249.185	2.03317
252.56	2.52307
255.935	1.83796
259.31	2.04111
262.685	0.668244
266.059	1.2123
269.434	1.0971
272.809	1.27235
276.184	0.769694
279.559	0.832313
282.933	0.758543
286.308	0.202763
289.683	0.228461
293.058	0.291172
296.433	0.287533
299.808	0.369854
303.182	0.079191
306.557	0.479619
309.932	0.544858
313.307	0.719848
316.682	0.693483
320.057	0.998171
323.431	0.358401
326.806	1.0874
330.181	0.059073
333.556	1.12694
336.931	2.4254
340.305	0.984124
343.68	0.206233
347.055	1.04593
350.43	1.00544
353.805	1.34891
357.18	0.302746
360.554	1.47289
363.929	1.2432
367.304	1.25971
370.679	0.645068
374.054	0.936169
377.428	0.143857
380.803	1.26652
384.178	2.07637
387.553	1.32135
390.928	0.446302
394.303	1.16532
397.677	2.49867
401.052	0.835518
404.427	0.877891
407.802	0.856066
411.177	0.730576
414.551	0.362007
417.926	1.09353
421.301	0.744512
424.676	0.298167
428.051	0.805271
431.425	1.10789
434.8	0.528058
438.175	0.312698
441.55	1.97713
444.925	0.905973
448.3	2.42391
451.674	1.3861
455.049	1.44029
458.424	1.55655
461.799	1.75401
465.174	1.04769
468.548	1.94048
471.923	1.66831
475.298	2.38581
478.673	2.17167
482.048	2.81648
485.423	1.91898
488.797	2.27374
492.172	2.34728
495.547	1.38972
498.922	1.85385
502.297	1.74261
505.671	0.879962
509.046	1.73322
512.421	1.32777
515.796	0.682634
519.171	0.681889
522.545	0.90123
525.92	0.936999
529.295	0.805702
532.67	0.979838
536.045	0.76577
539.42	1.20246
542.794	1.04693
546.169	1.09483
549.544	0.489628
552.919	0.186767
556.294	0.210787
559.668	1.36344
563.043	0.953677
566.418	0.651689
569.793	0.137969
573.168	0.135137
576.543	1.46102
579.917	1.15397
583.292	0.69467
586.667	1.20045
590.042	0.661664
593.417	1.20079
596.792	1.47788
600.166	1.18434
603.541	0.939628
606.916	0.005306
610.291	0.522576
613.666	0.319346
617.04	0.763328
620.415	0.960126
623.79	0.783503
627.165	0.562329
630.54	1.01668
633.915	1.23239
637.289	1.09612
640.664	0.627614
644.039	0.185108
647.414	0.468262
650.789	0.717716
654.163	1.62732
657.538	1.26073
660.913	0.032951
664.288	1.58933
667.663	1.45103
671.038	0.005952
674.412	0.703612
677.787	1.57466
681.162	1.73093
684.537	0.478191
687.912	0.755643
691.286	1.33381
694.661	0.815381
698.036	1.71771
701.411	2.18416
704.786	1.53003
708.16	2.27004
711.535	1.04981
714.91	1.41816
718.285	1.43154
721.66	1.92374
725.035	0.636367
728.409	0.042808
731.784	0.620193
735.159	1.02422
738.534	0.782963
741.909	1.19851
745.284	0.344668
748.658	0.632133
752.033	0.538608
755.408	0.325414
758.783	0.538933
762.158	0.421009
765.532	1.03539
768.907	0.453812
772.282	1.28262
775.657	0.131417
779.032	1.18229
782.407	1.25948
785.781	0.173321
789.156	0.302965
792.531	1.05413
795.906	0.27614
799.281	1.30364
802.655	0.913621
806.03	0.370641
809.405	1.08354
812.78	0.826339
816.155	0.771605
819.529	1.10018
822.904	1.21768
826.279	0.946212
829.654	0.357161
833.029	0.922207
836.404	1.05313
839.778	0.321909
843.153	1.32197
846.528	1.22695
849.903	2.50245
853.278	1.59988
856.653	1.56977
860.027	1.38129
863.402	0.975145
866.777	0.896291
870.152	0.676662
873.527	1.85682
876.901	0.149189
880.276	1.11756
883.651	1.83861
887.026	0.552079
890.401	0.114837
893.775	1.13184
897.15	1.50694
900.525	0.557762
903.9	0.189569
907.275	1.16707
910.649	1.95723
914.024	0.742646
917.399	2.14153
920.774	1.93499
924.149	1.94955
927.524	2.00797
930.898	0.661136
934.273	0.7971
937.648	1.39037
941.023	1.79525
944.398	1.95686
947.773	0.057883
951.147	1.29676
954.522	1.36539
957.897	0.390727
961.272	0.708181
964.647	0.301895
968.021	1.79781
971.396	0.421786
974.771	0.534752
978.146	0.421091
981.521	0.324945
984.895	0.464146
988.27	0.019817
991.645	0.382947
995.02	0.84527
998.395	0.910463
1001.77	0.61741
1005.14	0.538612
1008.52	0.331673
1011.89	0.175678
1015.27	0.336509
1018.64	0.91199
1022.02	1.43608
1025.39	1.34112
1028.77	1.01396
1032.14	0.521107
1035.52	1.16492
1038.89	0.469409
1042.27	1.23442
1045.64	1.32634
1049.02	0.603594
1052.39	1.22273
1055.77	1.76725
1059.14	2.01921
1062.52	1.15938
1065.89	1.62239
1069.27	1.37369
1072.64	1.35131
1076.02	2.08708
1079.39	0.839071
1082.77	0.849223
1086.14	1.80015
1089.52	1.03299
1092.89	0.219997
1096.27	0.315642
1099.64	1.14222
1103.01	1.15537
1106.39	1.35056
1109.76	0.143881
1113.14	1.4931
1116.51	1.02894
1119.89	0.220748
1123.26	0.260859
1126.64	0.746181
1130.01	0.622205
1133.39	0.861686
1136.76	1.36613
1140.14	0.036072
1143.51	1.13698
1146.89	0.897925
1150.26	1.51156
1153.64	1.30166
1157.01	1.36116
1160.39	2.55834
1163.76	0.631352
1167.14	1.26593
1170.51	1.05739
1173.88	0.596159
1177.26	2.55446
1180.63	0.55662
1184.01	0.269215
1187.38	2.104
1190.76	1.08711
1194.13	0.711396
1197.51	0.852313
1200.88	1.49622
1204.26	1.65268
1207.63	1.90072
1211.01	1.30296
1214.38	2.04647
1217.76	1.30754
1221.13	1.32643
1224.51	0.852413
1227.88	0.872406
1231.26	1.5111
1234.63	0.928314
1238.01	1.43087
1241.38	1.51522
1244.76	1.31746
1248.13	0.442653
1251.51	1.48923
1254.88	1.07757
1258.26	0.971143
1261.63	0.350138
1265.01	2.05146
1268.38	0.607314
1271.76	0.819743
1275.13	0.059539
1278.51	0.826323
1281.88	0.72333
1285.25	0.499223
