Measurement: Raman, 780 nm, unoriented, Raman Data Processed
Mineral: Ktenasite
Rruff sample: R090002
Ideal chemistry: Zn^2+^Cu^2+^_4_(S^6+^O_4_)_2_(OH)_6_6H_2_O
Locality: Oh mine, Gila County, Arizona, USA
Source: Michael Scott
Description: Radial aggregates of bluish green tabular crystals associated with serpierite, R060475
Raman shift (cm-1)	intensity
102.943	0
106.318	0.097305
109.693	7.97916
113.068	0.832733
116.443	9.52414
119.817	5.645
123.192	10.8843
126.567	7.09009
129.942	1.43533
133.317	4.64665
136.692	2.5929
140.066	6.01205
143.441	2.85171
146.816	7.83147
150.191	2.54681
153.566	9.22716
156.94	7.83917
160.315	3.76733
163.69	10.4985
167.065	2.81244
170.44	8.01115
173.815	4.91517
177.189	6.6035
180.564	2.66148
183.939	1.77818
187.314	0.405136
190.689	2.15429
194.064	1.55698
197.438	2.95364
200.813	3.97302
204.188	4.11528
207.563	7.80528
210.938	8.96181
214.312	16.9452
217.687	10.974
221.062	17.6173
224.437	23.0068
227.812	25.361
231.186	10.3104
234.561	7.83808
237.936	11.383
241.311	6.38337
244.686	9.04999
248.061	8.007
251.435	7.39877
254.81	5.74251
258.185	4.96172
261.56	6.13647
264.935	5.90984
268.31	5.00742
271.684	9.84353
275.059	6.52491
278.434	10.0438
281.809	12.8016
285.184	20.0199
288.558	23.9528
291.933	36.9648
295.308	33.9651
298.683	24.6821
302.058	18.263
305.433	12.6901
308.807	7.62613
312.182	6.88407
315.557	1.05648
318.932	8.7645
322.307	1.30688
325.682	2.63088
329.056	6.30952
332.431	2.71162
335.806	2.99315
339.181	3.50458
342.556	1.3107
345.93	4.50574
349.305	3.7504
352.68	2.37911
356.055	7.50393
359.43	5.88435
362.805	0.103119
366.179	2.25435
369.554	4.32793
372.929	8.27726
376.304	3.38767
379.679	5.75011
383.053	4.15011
386.428	8.04218
389.803	10.1467
393.178	11.7652
396.553	11.8048
399.928	13.9302
403.302	13.6099
406.677	12.7543
410.052	12.981
413.427	12.5937
416.802	9.90476
420.176	2.51979
423.551	7.2759
426.926	1.12577
430.301	3.96022
433.676	4.39551
437.05	6.87015
440.425	10.9122
443.8	2.36614
447.175	7.37989
450.55	6.94579
453.925	5.49397
457.299	4.19758
460.674	0.617203
464.049	3.61665
467.424	2.50977
470.799	2.64409
474.173	5.8298
477.548	3.95592
480.923	4.7555
484.298	0.702202
487.673	4.08376
491.048	1.95399
494.422	5.02615
497.797	3.6858
501.172	0.935387
504.547	4.22752
507.922	1.66539
511.296	5.35306
514.671	3.14632
518.046	0.361954
521.421	2.16005
524.796	0.981735
528.171	0.350693
531.545	2.48584
534.92	3.17854
538.295	3.6871
541.67	3.68559
545.045	0.740597
548.419	0.810364
551.794	2.20554
555.169	3.7877
558.544	2.62585
561.919	5.23945
565.294	0.756218
568.668	6.64254
572.043	2.9178
575.418	2.0505
578.793	1.18403
582.168	9.45688
585.543	8.42127
588.917	8.21357
592.292	7.50174
595.667	8.26049
599.042	9.34904
602.417	10.5454
605.791	14.841
609.166	11.9959
612.541	16.4495
615.916	6.46639
619.291	7.90314
622.665	6.73382
626.04	4.70744
629.415	2.59192
632.79	2.91256
636.165	0.594894
639.54	5.82345
642.914	2.26231
646.289	3.09399
649.664	3.7155
653.039	2.49841
656.414	3.53556
659.788	3.44517
663.163	5.28397
666.538	4.7672
669.913	0.148842
673.288	3.80653
676.663	5.01056
680.037	1.29533
683.412	0.564194
686.787	3.09633
690.162	3.11334
693.537	1.22352
696.912	3.60309
700.286	7.14064
703.661	1.15622
707.036	2.66052
710.411	2.46839
713.786	1.25731
717.16	1.45184
720.535	2.27083
723.91	4.1912
727.285	2.14561
730.66	0.281883
734.034	4.41537
737.409	4.19176
740.784	0.398926
744.159	6.0521
747.534	0.204468
750.909	3.71769
754.283	7.4158
757.658	4.18722
761.033	2.54136
764.408	0.819336
767.783	4.81438
771.158	5.88417
774.532	5.91997
777.907	3.29383
781.282	2.83351
784.657	5.41451
788.032	5.44651
791.406	8.54849
794.781	7.6016
798.156	5.5619
801.531	4.62207
804.906	3.00483
808.281	4.44538
811.655	4.84606
815.03	2.63313
818.405	2.86448
821.78	1.78947
825.155	3.15734
828.529	3.90359
831.904	5.19358
835.279	4.83664
838.654	0.091164
842.029	3.09627
845.404	2.05318
848.778	4.54757
852.153	1.81134
855.528	3.23217
858.903	0.90065
862.278	4.88006
865.653	4.47379
869.027	4.44511
872.402	0.800549
875.777	1.22977
879.152	4.90979
882.527	3.75749
885.901	2.66336
889.276	1.9386
892.651	0.823647
896.026	6.28192
899.401	4.9349
902.775	3.5055
906.15	3.78297
909.525	1.33295
912.9	5.76477
916.275	3.16132
919.65	2.60968
923.024	2.10801
926.399	1.67195
929.774	3.0839
933.149	1.27721
936.524	3.164
939.899	2.69925
943.273	0.240318
946.648	0.479347
950.023	2.45605
953.398	3.37111
956.773	1.5016
960.147	0.470234
963.522	3.03271
966.897	4.88077
970.272	17.515
973.647	20.4995
977.021	30.8297
980.396	33.1549
983.771	29.211
987.146	12.7941
990.521	8.90391
993.896	5.26638
997.27	6.22588
1000.64	2.12519
1004.02	1.72568
1007.39	6.16567
1010.77	4.47734
1014.14	1.5911
1017.52	0.08691
1020.89	4.41965
1024.27	6.36181
1027.64	4.52571
1031.02	2.89437
1034.39	5.00381
1037.77	2.34011
1041.14	4.24043
1044.52	1.10834
1047.89	3.20449
1051.27	1.33372
1054.64	0.740948
1058.02	2.22327
1061.39	2.05581
1064.77	1.47472
1068.14	3.70411
1071.52	3.73664
1074.89	3.12336
1078.27	1.70933
1081.64	2.56002
1085.02	4.37114
1088.39	0.58353
1091.77	1.08736
1095.14	2.77488
1098.52	2.04311
1101.89	0.962318
1105.27	9.26139
1108.64	5.63904
1112.01	5.27756
1115.39	7.80164
1118.76	3.69121
1122.14	7.12099
1125.51	0.086037
1128.89	1.40871
1132.26	2.68834
1135.64	3.92632
1139.01	6.35474
1142.39	2.53013
1145.76	3.69814
1149.14	1.64756
1152.51	2.97564
1155.89	2.56059
1159.26	4.01832
1162.64	2.08823
1166.01	2.6404
1169.39	0.500385
1172.76	3.25212
1176.14	1.81927
1179.51	1.01528
1182.88	6.23679
1186.26	0.927414
1189.63	2.09452
1193.01	2.74518
1196.38	4.16788
1199.76	1.95288
1203.13	1.30416
1206.51	4.79562
1209.88	1.28736
1213.26	1.28402
1216.63	6.25466
1220.01	5.40083
1223.38	3.71485
1226.76	5.7396
1230.13	3.30379
1233.51	7.20373
1236.88	4.83749
1240.26	2.75538
1243.63	0.960533
1247.01	7.01899
1250.38	7.18798
1253.76	5.76133
1257.13	4.45681
1260.51	8.6223
1263.88	3.87366
1267.26	3.98339
1270.63	5.8904
1274.01	5.22118
1277.38	7.78293
1280.76	7.72037
1284.13	11.0792
