Measurement: Raman, 780 nm, unoriented, Raman Data Processed
Mineral: Kukharenkoite-(Ce)
Rruff sample: R110190
Ideal chemistry: Ba_2_Ce(CO_3_)_3_F
Locality: Demix-Varennes quarry, Saint-Amable sill, Varennes & St-Amable, Lajemmerais RCM, Monteregie, Quebec, Canada
Source: Donald Doell
Description: Radial sprays of white bladed crystals
Measured chemistry: (Ba_1.90_Sr_0.10_)_Σ=2.00_(Ce_0.54_La_0.22_Nd_0.15_Pr_0.06_)_Σ=0.97_(CO_3_)_2.99_F_1.14_
Raman shift (cm-1)	intensity
95.4604	2757.95
98.8353	2810.52
102.21	2757.61
105.585	2795.34
108.96	2877.06
112.335	2894.22
115.709	2993.52
119.084	3086.1
122.459	3160.76
125.834	3187.65
129.209	3264.97
132.583	3338.35
135.958	3507.93
139.333	3625.73
142.708	3802.45
146.083	3982.14
149.458	4142.23
152.832	4382.4
156.207	4632.2
159.582	4837.48
162.957	5134.28
166.332	5348.9
169.706	5627.35
173.081	5873.02
176.456	6128.26
179.831	6341.39
183.206	6579.87
186.581	6780.67
189.955	7134.12
193.33	7348.32
196.705	7765.69
200.08	8092.73
203.455	8601.91
206.829	9049.25
210.204	9636.22
213.579	10444.9
216.954	11155.8
220.329	12108.8
223.703	13174.2
227.078	14316.3
230.453	15623.1
233.828	16982.4
237.203	18409.5
240.578	19670.4
243.952	20942.4
247.327	22051.8
250.702	23221.7
254.077	24189.1
257.452	25067.9
260.827	25621.9
264.201	25872.8
267.576	25938.9
270.951	25875.2
274.326	25864.6
277.701	25718.1
281.075	25491.8
284.45	25217.5
287.825	24472.5
291.2	23876.7
294.575	22959.8
297.95	21860.4
301.324	20739.5
304.699	19534.5
308.074	18333
311.449	17293.5
314.824	16330.5
318.198	15469.4
321.573	14717.9
324.948	14230.5
328.323	13658.1
331.698	13323
335.072	12956.1
338.447	12665.5
341.822	12541.7
345.197	12379.6
348.572	12238.8
351.947	12118.4
355.321	12076.6
358.696	12014.2
362.071	12034.6
365.446	12033.6
368.821	11980.2
372.195	11949.3
375.57	11941.2
378.945	11977.9
382.32	12013.2
385.695	12043.4
389.07	12203.1
392.444	12309.8
395.819	12276.7
399.194	12307.4
402.569	12499
405.944	12600.2
409.318	12824.8
412.693	12974.4
416.068	13136
419.443	13226.2
422.818	13468.3
426.192	13627.6
429.567	13762.9
432.942	13921.1
436.317	14016.9
439.692	14223.2
443.067	14389.8
446.441	14518
449.816	14561.9
453.191	14731.6
456.566	14743.8
459.941	14947.7
463.315	14948.8
466.69	15039.9
470.065	15179.4
473.44	15156.1
476.815	15256
480.19	15325.7
483.564	15435.9
486.939	15469.1
490.314	15550.3
493.689	15606
497.064	15743.3
500.438	15753.4
503.813	15848.1
507.188	15918.4
510.563	15895.3
513.938	15899.7
517.313	15740
520.687	15635.2
524.062	15526.3
527.437	15282.9
530.812	15227.5
534.187	15041.2
537.562	14891.3
540.936	14645.7
544.311	14415.9
547.686	14202.7
551.061	14050.3
554.436	13900.3
557.81	13829.7
561.185	13707.9
564.56	13464.8
567.935	13412.8
571.31	13267.9
574.684	13310.6
578.059	13164
581.434	13167.7
584.809	12967.7
588.184	12980.7
591.558	13005.2
594.933	12800.5
598.308	12758.9
601.683	12633
605.058	12458.6
608.433	12318.7
611.807	12022.5
615.182	11869.8
618.557	11540.4
621.932	11275.8
625.307	10965.9
628.682	10752
632.056	10346.5
635.431	9991.2
638.806	9681.94
642.181	9344.29
645.556	8937.44
648.93	8657.18
652.305	8264.73
655.68	7873.73
659.055	7490.2
662.43	7216.73
665.804	6924.33
669.179	6574.45
672.554	6303.54
675.929	6051.98
679.304	5774.35
682.679	5531.3
686.053	5277.96
689.428	5082.9
692.803	4883.25
696.178	4686.8
699.553	4516.68
702.928	4365.57
706.302	4214.61
709.677	4057.44
713.052	3932.99
716.427	3819.35
719.802	3682.34
723.176	3561.86
726.551	3454.18
729.926	3360.39
733.301	3243.16
736.676	3150.22
740.051	3063.57
743.425	3017.93
746.8	2918.98
750.175	2862.1
753.55	2767.68
756.925	2743.37
760.299	2666.54
763.674	2636.58
767.049	2582
770.424	2497.25
773.799	2451.52
777.173	2405.39
780.548	2394.26
783.923	2336.41
787.298	2263.64
790.673	2246.94
794.048	2197.97
797.422	2145.65
800.797	2130.96
804.172	2061.35
807.547	2067.42
810.922	2014.81
814.296	1991.85
817.671	1990.6
821.046	1972.54
824.421	1934.55
827.796	1871.89
831.17	1865.73
834.545	1851.61
837.92	1801.59
841.295	1799.24
844.67	1811.64
848.045	1749.04
851.419	1763.81
854.794	1723.49
858.169	1734.74
861.544	1704.09
864.919	1681.47
868.293	1683.91
871.668	1689.78
875.043	1653.84
878.418	1683.2
881.793	1669.41
885.168	1626.98
888.542	1627.45
891.917	1627.34
895.292	1636.73
898.667	1635
902.042	1617.46
905.417	1630.24
908.791	1635.26
912.166	1638.45
915.541	1630.83
918.916	1650.27
922.291	1643.83
925.665	1666.91
929.04	1677.58
932.415	1717.35
935.79	1712.27
939.165	1720.19
942.539	1740
945.914	1755.46
949.289	1810.43
952.664	1826.56
956.039	1869.79
959.414	1865.48
962.788	1895.86
966.163	1947.16
969.538	2002.97
972.913	2028.48
976.288	2073.05
979.663	2103.66
983.037	2202.74
986.412	2237.8
989.787	2273.95
993.162	2361.56
996.537	2463.73
999.911	2512.52
1003.29	2625.04
1006.66	2738.48
1010.04	2807.93
1013.41	2887.23
1016.78	2993.9
1020.16	3106.52
1023.53	3284.51
1026.91	3371.04
1030.29	3499.25
1033.66	3686.77
1037.03	3800.68
1040.41	3998.03
1043.78	4154.46
1047.16	4341.05
1050.53	4526.07
1053.91	4739.67
1057.28	4960.94
1060.66	5188.94
1064.03	5461.3
1067.41	5733.05
1070.78	6057.63
1074.16	6291.48
1077.53	6544.92
1080.91	6962.46
1084.28	7234.46
1087.66	7499.55
1091.03	7898.06
1094.41	8220.99
1097.78	8513.22
1101.16	8890.61
1104.53	9326.21
1107.91	9747.23
1111.28	10066.3
1114.65	10479.2
1118.03	10904.8
1121.4	11379
1124.78	11770.6
1128.15	12322.1
1131.53	12570.3
1134.9	13004.8
1138.28	13457.5
1141.65	13779.7
1145.03	14295.2
1148.4	14721.1
1151.78	15121.2
1155.15	15580
1158.53	16078.4
1161.9	16556.6
1165.28	17196.2
1168.65	17705.8
1172.03	18344
1175.4	19028
1178.78	19663.6
1182.15	20403.2
1185.53	21230.6
1188.9	22246.3
1192.28	23172.2
1195.65	24085.2
1199.03	25295.1
1202.4	26389.4
1205.78	27709.4
1209.15	29149.5
1212.53	30959
1215.9	32761.6
1219.27	34886.7
1222.65	37284.7
1226.02	40080.2
1229.4	43323.6
1232.77	47018.1
1236.15	51286.4
1239.52	56162.7
1242.9	62064.3
1246.27	69176.8
1249.65	77614.3
1253.02	87669.5
1256.4	99867.8
1259.77	114375
1263.15	130740
1266.52	149110
1269.9	168447
1273.27	185103
1276.65	197688
1280.02	203990
1283.4	206667
