Measurement: Raman, 780 nm, unoriented, Raman Data RAW
Mineral: Kyanite
Rruff sample: R100139
Ideal chemistry: Al_2_OSiO_4_
Locality: Madagascar
Source: William W. Pinch
Description: Blue prismatic crystal fragment, slightly water-worn
Raman shift (cm-1)	intensity
112.301	11237.1
115.675	11285.6
119.05	11323.8
122.425	11357.1
125.8	11401.5
129.175	11427.5
132.55	11440.8
135.924	11462.6
139.299	11490.2
142.674	11485.4
146.049	11496.4
149.424	11463.9
152.798	11481.9
156.173	11479.7
159.548	11479.5
162.923	11471.1
166.298	11457.9
169.673	11445.5
173.047	11433.2
176.422	11415.5
179.797	11406
183.172	11388.6
186.547	11391.1
189.921	11373
193.296	11345.4
196.671	11315.2
200.046	11296
203.421	11275.8
206.796	11257.8
210.17	11246.6
213.545	11213
216.92	11182.7
220.295	11145.3
223.67	11152
227.044	11106.2
230.419	11091.3
233.794	11053.5
237.169	11038.1
240.544	11010.8
243.918	10979.6
247.293	10953
250.668	10907.9
254.043	10889.8
257.418	10857.5
260.793	10833.9
264.167	10804.5
267.542	10746.3
270.917	10729.3
274.292	10691.3
277.667	10661.2
281.041	10631.7
284.416	10584.1
287.791	10558.1
291.166	10523.3
294.541	10461
297.916	10449.6
301.29	10401.6
304.665	10377.6
308.04	10349.2
311.415	10305.1
314.79	10281.1
318.164	10246.3
321.539	10219
324.914	10202.7
328.289	10158.6
331.664	10103.6
335.038	10075.8
338.413	10057.2
341.788	10026.6
345.163	10008.5
348.538	9963.96
351.913	9907.53
355.287	9878.05
358.662	9851.22
362.037	9813.75
365.412	9777.98
368.787	9768.39
372.161	9734.29
375.536	9675.12
378.911	9659.76
382.286	9635.6
385.661	9596.67
389.036	9578.41
392.41	9552.41
395.785	9537.35
399.16	9523.89
402.535	9500.83
405.909	9476.93
409.284	9456.36
412.659	9452.72
416.034	9421.76
419.409	9407.19
422.784	9392.87
426.158	9366.31
429.533	9368.66
432.908	9336
436.283	9341.11
439.658	9292.57
443.033	9282.88
446.407	9257.78
449.782	9240.4
453.157	9233.25
456.532	9219.98
459.907	9195.97
463.281	9148.55
466.656	9130.15
470.031	9125.28
473.406	9100.88
476.781	9067.26
480.156	9057.1
483.53	9034.72
486.905	9021.41
490.28	8983.27
493.655	8958.64
497.029	8946.76
500.404	8906.42
503.779	8887.02
507.154	8866.13
510.529	8839.78
513.904	8806.65
517.278	8798.6
520.653	8773.82
524.028	8717.31
527.403	8702.84
530.778	8679.33
534.153	8655.86
537.527	8608.83
540.902	8598.45
544.277	8547.73
547.652	8534.08
551.027	8517.83
554.401	8498.78
557.776	8476.78
561.151	8443.51
564.526	8424.22
567.901	8391.79
571.275	8351.34
574.65	8332.9
578.025	8305.29
581.4	8282.42
584.775	8241.1
588.149	8208.81
591.524	8181.9
594.899	8158.23
598.274	8144.75
601.649	8107.68
605.024	8078.08
608.398	8039.65
611.773	8038.2
615.148	7995.14
618.523	7960.57
621.898	7922.06
625.273	7902.65
628.647	7855.72
632.022	7820.81
635.397	7794.84
638.772	7786.96
642.146	7741.6
645.521	7701.09
648.896	7682.86
652.271	7641.03
655.646	7605.52
659.021	7604.69
662.395	7557.96
665.77	7510.79
669.145	7482.73
672.52	7457.32
675.895	7430.93
679.269	7422.18
682.644	7364.36
686.019	7332.97
689.394	7312.34
692.769	7280.29
696.144	7252.8
699.518	7233.19
702.893	7217.42
706.268	7201.31
709.643	7176.64
713.018	7149.98
716.393	7107.19
719.767	7100.9
723.142	7084.77
726.517	7051.17
729.892	7021.35
733.266	6987.91
736.641	6972.37
740.016	6938.25
743.391	6928.86
746.766	6906.9
750.141	6889.84
753.515	6865.3
756.89	6839.71
760.265	6828.26
763.64	6795.96
767.015	6789.89
770.389	6759.62
773.764	6753.64
777.139	6713.98
780.514	6714.92
783.889	6695.48
787.264	6676.9
790.638	6648.71
794.013	6633.57
797.388	6631
800.763	6604.6
804.138	6591.36
807.513	6583.7
810.887	6553.37
814.262	6532.65
817.637	6526.56
821.012	6502.3
824.386	6496.37
827.761	6471.98
831.136	6442.61
834.511	6403.08
837.886	6382.29
841.261	6366.4
844.635	6343.82
848.01	6340.72
851.385	6306.75
854.76	6277.54
858.135	6255.99
861.51	6244.66
864.884	6206.59
868.259	6188.74
871.634	6155.7
875.009	6146.34
878.384	6113.31
881.758	6088.13
885.133	6066.32
888.508	6027
891.883	6028.62
895.258	5986.57
898.632	5962.57
902.007	5934.34
905.382	5903.27
908.757	5884.94
912.132	5857.65
915.506	5820
918.881	5795.22
922.256	5760.81
925.631	5755.54
929.006	5744.82
932.381	5720.02
935.755	5686.39
939.13	5653.69
942.505	5636.17
945.88	5630.83
949.255	5599.13
952.63	5570.44
956.004	5550.01
959.379	5527.43
962.754	5493.91
966.129	5470.87
969.504	5444.13
972.878	5425.91
976.253	5390.23
979.628	5369.19
983.003	5350.81
986.378	5329.54
989.752	5326.88
993.127	5305.12
996.502	5295.72
999.877	5265.25
1003.25	5250.64
1006.63	5233.98
1010	5216.52
1013.38	5189.54
1016.75	5170.89
1020.13	5152.49
1023.5	5147.11
1026.88	5129.86
1030.25	5115.67
1033.62	5092.17
1037	5092.35
1040.38	5064.93
1043.75	5062.31
1047.12	5046.45
1050.5	5027.77
1053.87	4998.37
1057.25	4976.84
1060.62	4959.15
1064	4958.38
1067.37	4942.25
1070.75	4906.83
1074.12	4898.85
1077.5	4871.23
1080.87	4857.73
1084.25	4842.28
1087.62	4836.32
1091	4812.82
1094.37	4786.11
1097.75	4772.82
1101.12	4753.45
1104.5	4741.98
1107.87	4727.32
1111.25	4705.02
1114.62	4700.22
1117.99	4663.61
1121.37	4664.51
1124.74	4641.87
1128.12	4638.47
1131.49	4624.88
1134.87	4607.67
1138.24	4601.74
1141.62	4587.03
1144.99	4569.2
1148.37	4554.1
1151.74	4540.78
1155.12	4528.04
1158.49	4511.77
1161.87	4508.25
1165.24	4476.69
1168.62	4473.48
1171.99	4453.84
1175.37	4443.73
1178.74	4419.83
1182.12	4409.54
1185.49	4388.83
1188.87	4377.83
1192.24	4363.97
1195.62	4356.03
1198.99	4317.35
1202.37	4303.65
1205.74	4284.54
1209.12	4280.41
1212.49	4262.48
1215.87	4238.34
1219.24	4209.13
1222.62	4187.13
1225.99	4182.11
1229.36	4170.19
1232.74	4141.8
1236.11	4134.24
1239.49	4124.44
1242.86	4102.1
1246.24	4097.39
1249.61	4074.4
1252.99	4050.69
1256.36	4050.97
1259.74	4030.52
1263.11	4029.41
1266.49	4015.52
1269.86	3997.44
1273.24	3989.64
1276.61	3985.33
1279.99	3963.26
1283.36	3955.23
