Measurement: Raman, 780 nm, unoriented, Raman Data Processed
Mineral: Laihunite
Rruff sample: R110051
Ideal chemistry: (Fe^3+^,Fe^2+^,[box])_2_SiO_4_
Locality: Laihe Fe deposit, Qianshan District, Anshan Prefecture, Liaoning Province, China
Source: Pingqu Fu
Description: Unconsolidated black subhedral grains. Type sample
Raman shift (cm-1)	intensity
125.352	0
128.726	0.506317
132.101	2.02551
135.476	2.57739
138.851	2.21878
142.226	0.28492
145.601	0.640625
148.975	1.16232
152.35	4.6885
155.725	6.37116
159.1	7.67042
162.475	5.16338
165.85	2.72675
169.224	1.17028
172.599	1.76554
175.974	3.262
179.349	5.26255
182.724	5.71296
186.098	9.91485
189.473	10.4655
192.848	7.60288
196.223	9.17516
199.598	14.0746
202.972	15.3145
206.347	17.6519
209.722	22.2183
213.097	21.4196
216.472	16.9846
219.847	8.43497
223.221	5.10046
226.596	2.67278
229.971	0.278343
233.346	2.15217
236.721	0.351089
240.095	1.27763
243.47	2.87189
246.845	2.12226
250.22	1.90152
253.595	1.20095
256.969	1.27934
260.344	3.55095
263.719	5.36747
267.094	8.45679
270.469	10.4102
273.844	11.2611
277.218	10.7631
280.593	13.4692
283.968	12.7271
287.343	12.3027
290.718	6.06448
294.092	9.04581
297.467	9.41265
300.842	11.1553
304.217	10.2563
307.592	14.3717
310.967	13.035
314.341	13.5723
317.716	10.1497
321.091	8.99688
324.466	9.19695
327.841	8.95578
331.216	8.84328
334.59	6.13491
337.965	1.6235
341.34	3.34245
344.715	6.24921
348.09	0.780029
351.464	2.39111
354.839	2.37353
358.214	1.20869
361.589	2.81115
364.964	3.00706
368.339	2.16712
371.713	2.44075
375.088	3.48233
378.463	3.95443
381.838	1.71665
385.213	0.672913
388.587	2.84763
391.962	4.5942
395.337	0.010612
398.712	4.54247
402.087	2.3558
405.462	2.62711
408.836	0.134514
412.211	1.17233
415.586	0.978554
418.961	0.729065
422.336	2.74486
425.71	3.39742
429.085	0.896339
432.46	1.2746
435.835	0.195892
439.21	2.09041
442.584	2.07063
445.959	2.71561
449.334	1.86284
452.709	2.62666
456.084	2.87631
459.459	2.29208
462.833	1.76157
466.208	2.70633
469.583	0.912201
472.958	1.13379
476.333	0.062035
479.707	3.82624
483.082	3.15523
486.457	0.600159
489.832	2.16274
493.207	1.31459
496.582	1.47814
499.956	1.2738
503.331	0.537384
506.706	4.0594
510.081	2.23692
513.456	2.71348
516.83	3.85969
520.205	2.38149
523.58	0.38784
526.955	1.4577
530.33	0.273415
533.705	0.565849
537.079	1.61263
540.454	4.66767
543.829	0.986694
547.204	4.6505
550.579	7.26015
553.953	7.90309
557.328	10.9648
560.703	8.24731
564.078	9.54907
567.453	11.5136
570.827	12.8432
574.202	12.6297
577.577	10.8824
580.952	6.15197
584.327	8.62694
587.702	6.86352
591.076	9.00402
594.451	6.7318
597.826	6.5974
601.201	4.82655
604.576	5.86571
607.951	0.722626
611.325	4.82585
614.7	1.14425
618.075	2.03989
621.45	2.66316
624.825	1.80459
628.199	0.999458
631.574	0.715645
634.949	0.903385
638.324	1.98959
641.699	2.4837
645.073	0.700401
648.448	2.80443
651.823	1.42599
655.198	2.42865
658.573	0.933716
661.948	1.85981
665.322	1.05939
668.697	1.90607
672.072	2.75075
675.447	1.51927
678.822	0.455036
682.197	1.78504
685.571	1.11696
688.946	2.69449
692.321	1.8948
695.696	2.51797
699.071	2.28177
702.445	3.76024
705.82	0.820496
709.195	1.26281
712.57	0.434155
715.945	1.62194
719.319	0.449287
722.694	2.63351
726.069	1.8191
729.444	0.888931
732.819	3.32953
736.193	2.96154
739.568	1.65598
742.943	3.5723
746.318	2.03717
749.693	0.855869
753.068	0.953514
756.442	1.67008
759.817	4.49547
763.192	2.5631
766.567	5.3512
769.942	4.62016
773.317	3.68755
776.691	5.25699
780.066	2.74263
783.441	2.86932
786.816	0.418217
790.191	3.66893
793.565	0.497463
796.94	4.72374
800.315	1.26735
803.69	2.49254
807.065	1.81787
810.439	0.968498
813.814	1.03806
817.189	2.71571
820.564	3.5283
823.939	0.768173
827.314	4.74944
830.688	1.06942
834.063	0.914474
837.438	3.21217
840.813	2.45919
844.188	2.99402
847.562	3.27126
850.937	1.56728
854.312	4.74153
857.687	2.75252
861.062	3.84618
864.437	4.65822
867.811	4.45063
871.186	7.39333
874.561	2.06268
877.936	3.5796
881.311	2.16185
884.686	3.94889
888.06	2.23954
891.435	2.89896
894.81	2.58594
898.185	2.8607
901.56	1.97607
904.934	2.93212
908.309	0.966385
911.684	0.326233
915.059	0.425625
918.434	0.732388
921.808	2.40225
925.183	4.03324
928.558	0.190781
931.933	0.189682
935.308	2.53907
938.683	0.86758
942.057	0.782696
945.432	0.251896
948.807	0.544312
952.182	2.54002
955.557	1.93818
958.932	1.84462
962.306	1.48968
965.681	0.383675
969.056	3.02263
972.431	1.69149
975.806	2.21812
979.18	0.780743
982.555	3.205
985.93	1.62501
989.305	4.64719
992.68	0.709904
996.054	0.465176
999.429	2.33991
1002.8	2.01852
1006.18	2.33561
1009.55	0.097607
1012.93	1.90478
1016.3	0.562782
1019.68	2.27416
1023.05	3.10374
1026.43	1.53273
1029.8	1.25401
1033.18	1.85175
1036.55	2.01976
1039.93	2.52461
1043.3	0.282585
1046.68	2.4425
1050.05	2.96038
1053.43	1.26909
1056.8	2.15416
1060.18	3.91658
1063.55	0.46637
1066.93	1.34816
1070.3	2.94722
1073.67	1.22405
1077.05	3.70869
1080.42	4.50607
1083.8	1.75301
1087.17	2.12646
1090.55	1.34799
1093.92	3.24549
1097.3	1.5033
1100.67	5.54407
1104.05	2.19694
1107.42	1.43062
1110.8	2.37722
1114.17	2.47568
1117.55	2.52458
1120.92	0.099689
1124.3	3.91417
1127.67	1.27717
1131.05	2.39789
1134.42	1.6414
1137.8	2.76557
1141.17	4.33109
1144.55	1.73301
1147.92	1.75483
1151.3	2.63747
1154.67	4.0775
1158.05	1.44582
1161.42	4.51168
1164.8	1.044
1168.17	1.90803
1171.55	2.79131
1174.92	4.69133
1178.3	4.54192
1181.67	5.14177
1185.04	4.22314
1188.42	3.63414
1191.79	3.18414
1195.17	1.32684
1198.54	2.00975
1201.92	3.86667
1205.29	3.59975
1208.67	4.3583
1212.04	4.20182
1215.42	1.2533
1218.79	4.94659
1222.17	4.24511
1225.54	3.65268
1228.92	3.37249
1232.29	0.576984
1235.67	2.53592
1239.04	5.59529
1242.42	3.2088
1245.79	3.10805
1249.17	2.54025
1252.54	4.55617
1255.91	4.38705
1259.29	0.828159
1262.66	4.5918
1266.04	3.97847
1269.41	2.01549
1272.79	2.46894
1276.16	4.18791
1279.54	1.28612
1282.91	2.87743
