Measurement: Raman, 780 nm, unoriented, Raman Data RAW
Mineral: Lanthanite-(Nd)
Rruff sample: R060470
Ideal chemistry: Nd_2_(CO_3_)_3_8H_2_O
Locality: Santa Isabel, Sao Paulo State, Brazil
Source: Michael Scott
Description: Purple platy aggregate
Raman shift (cm-1)	intensity
194.743	2989.2
197.635	2997.54
200.528	2960.44
203.421	2949.82
206.313	2921.16
209.206	2926.02
212.099	2886.21
214.992	2899.06
217.884	2929.85
220.777	2986.55
223.67	3031.33
226.562	3108.16
229.455	3166.24
232.348	3234.21
235.24	3349.27
238.133	3422.24
241.026	3464.6
243.918	3530.64
246.811	3549.94
249.704	3626.34
252.597	3613.04
255.489	3644.04
258.382	3690.11
261.275	3699.43
264.167	3723.02
267.06	3735.88
269.953	3734.03
272.846	3746.75
275.738	3804.39
278.631	3812.07
281.524	3889.75
284.416	3910.12
287.309	3989.58
290.202	4037.83
293.094	4125.6
295.987	4155.21
298.88	4228.25
301.772	4265.13
304.665	4298.23
307.558	4329.2
310.45	4360.93
313.343	4340.82
316.236	4349.46
319.129	4335.84
322.021	4338.7
324.914	4360.65
327.807	4363.36
330.699	4349.84
333.592	4350.01
336.485	4382.45
339.377	4387.54
342.27	4378.96
345.163	4415.64
348.056	4392.31
350.948	4386.04
353.841	4396.27
356.734	4375.4
359.626	4381.56
362.519	4360.31
365.412	4341.74
368.305	4352.08
371.197	4282.63
374.09	4231.79
376.983	4214.6
379.875	4188.16
382.768	4136.81
385.661	4086.26
388.553	4066.03
391.446	3994.97
394.339	3965.12
397.231	3914.35
400.124	3867.7
403.017	3822.99
405.909	3762.43
408.802	3718.84
411.695	3706.4
414.588	3644.68
417.48	3621.26
420.373	3591.89
423.266	3537.4
426.158	3501.22
429.051	3470.43
431.944	3447.8
434.837	3377.31
437.729	3378.93
440.622	3318.57
443.515	3302.68
446.407	3261.46
449.3	3207.89
452.193	3198.99
455.085	3135.49
457.978	3104.97
460.871	3067.23
463.764	3034.71
466.656	2995.14
469.549	2931.37
472.442	2896.83
475.334	2812.24
478.227	2775.06
481.12	2725.25
484.012	2679.9
486.905	2620.16
489.798	2599.17
492.69	2560.18
495.583	2514.51
498.476	2480.44
501.369	2471
504.261	2456.95
507.154	2429.74
510.047	2427.09
512.939	2427.96
515.832	2433.14
518.725	2428.45
521.617	2448.48
524.51	2442.63
527.403	2493.62
530.296	2480.39
533.188	2507.98
536.081	2529.49
538.974	2585.54
541.866	2589.15
544.759	2598.68
547.652	2618.84
550.544	2652.24
553.437	2668.9
556.33	2709.77
559.222	2724.85
562.115	2769.09
565.008	2795.49
567.901	2840.84
570.793	2868.2
573.686	2939.53
576.579	3003.08
579.471	3059.46
582.364	3080.93
585.257	3133.52
588.149	3124.76
591.042	3121.41
593.935	3105.11
596.828	3077.73
599.72	3054.22
602.613	3043.68
605.506	3043.44
608.398	3044.83
611.291	3021.12
614.184	3029.59
617.077	3034.64
619.969	2998.44
622.862	2971.82
625.755	2915.94
628.647	2861.31
631.54	2775.59
634.433	2743.8
637.325	2659.84
640.218	2609.56
643.111	2571.11
646.004	2506.21
648.896	2475.27
651.789	2453.62
654.682	2376.47
657.574	2339.94
660.467	2297.72
663.36	2252.84
666.252	2220.48
669.145	2171.77
672.038	2160.05
674.931	2116.05
677.823	2120.7
680.716	2101.36
683.609	2072.79
686.501	2051.13
689.394	1995.3
692.287	1962.9
695.179	1955.3
698.072	1933.27
700.965	1887.83
703.857	1865.14
706.75	1853.68
709.643	1848.25
712.535	1844.17
715.428	1836.05
718.321	1843.99
721.214	1823.92
724.106	1827.49
726.999	1803.59
729.892	1797.85
732.784	1754.71
735.677	1713.12
738.57	1655.12
741.462	1612.48
744.355	1570.73
747.248	1547.89
750.141	1508.87
753.033	1490.76
755.926	1475.76
758.819	1522.98
761.711	1507.51
764.604	1326.88
767.497	1206.98
770.389	1134.14
773.282	1085.86
776.175	1036
779.068	1020.03
781.96	981.419
784.853	976.461
787.746	949.967
790.638	931.043
793.531	920.342
796.424	908.859
799.317	895.274
802.209	888.822
805.102	871.251
807.995	871.993
810.887	873.3
813.78	860.193
816.673	861.997
819.565	855.722
822.458	847.841
825.351	859.214
828.244	841.817
831.136	852.874
834.029	867.852
836.922	851.956
839.814	853.574
842.707	866.622
845.6	847.2
848.492	868.186
851.385	871.143
854.278	877.297
857.17	898.232
860.063	900.111
862.956	907.732
865.849	915.459
868.741	929.334
871.634	929.665
874.527	947.825
877.419	956.129
880.312	961.557
883.205	992.454
886.097	1004.15
888.99	1019.31
891.883	1039.39
894.775	1053.2
897.668	1061.55
900.561	1087.79
903.454	1102.74
906.346	1137.98
909.239	1152.18
912.132	1189.32
915.024	1187.22
917.917	1237.27
920.81	1259.7
923.702	1292.97
926.595	1313.24
929.488	1360.93
932.381	1387.46
935.273	1432.06
938.166	1467.6
941.059	1499.15
943.951	1542.98
946.844	1587.12
949.737	1641.57
952.63	1683.44
955.522	1738.73
958.415	1798.39
961.308	1866.12
964.2	1909.57
967.093	1997.72
969.986	2037.99
972.878	2108.81
975.771	2196.32
978.664	2260.36
981.557	2370.27
984.449	2448.72
987.342	2518.17
990.235	2612.96
993.127	2708.18
996.02	2809.4
998.913	2904.99
1001.8	3011
1004.7	3112.38
1007.59	3242.73
1010.48	3342.41
1013.38	3456.69
1016.27	3592.85
1019.16	3714.53
1022.05	3852.2
1024.95	3997.16
1027.84	4127.59
1030.73	4283.66
1033.62	4412.1
1036.52	4622.34
1039.41	4769.73
1042.3	4929.3
1045.2	5083.2
1048.09	5300.67
1050.98	5468.04
1053.87	5677.39
1056.77	5927.67
1059.66	6151.64
1062.55	6416.17
1065.44	6696.03
1068.34	6968.74
1071.23	7296.98
1074.12	7677.31
1077.02	8172.29
1079.91	8618.88
1082.8	9084.53
1085.69	9641.24
1088.59	10374.9
1091.48	10768.7
1094.37	10531
1097.26	10513.3
1100.16	10850.5
1103.05	11282.1
1105.94	11740.7
1108.84	12359.5
1111.73	12767.7
1114.62	13374.4
1117.51	14037.8
1120.41	14650.6
1123.3	15368
1126.19	16089.9
1129.08	16888.3
1131.98	17719.5
1134.87	18711.4
1137.76	19752.1
1140.65	20862.5
1143.55	22027.6
1146.44	23450.7
1149.33	24750.3
1152.23	26451.1
1155.12	28159.5
1158.01	30123.6
1160.9	32336.6
1163.8	34657.2
1166.69	37312.7
1169.58	39996.4
1172.47	42969.5
1175.37	45921.9
1178.26	48994.1
1181.15	52177.2
1184.05	55053.7
1186.94	57903.2
1189.83	60762.4
1192.72	63164.3
1195.62	65321.3
1198.51	66948.4
1201.4	68154.4
1204.29	69231.5
1207.19	69835.1
1210.08	70242.2
1212.97	70460.8
1215.87	70676.2
1218.76	70875.4
1221.65	71257.2
1224.54	72113.1
1227.44	72970.3
1230.33	74063.2
1233.22	75359
1236.11	76819.8
1239.01	77924.8
1241.9	79077.4
1244.79	80062
1247.68	80887
1250.58	81238.2
1253.47	81451.1
1256.36	81899.1
1259.26	82641.8
1262.15	83611.4
1265.04	85454.9
1267.93	88379.2
1270.83	92356.8
1273.72	97530.7
1276.61	104055
1279.5	111088
1282.4	118716
