Measurement: Raman, 785 nm, unoriented, Raman Data Processed
Mineral: Lanthanite-(Nd)
Rruff sample: R060993
Ideal chemistry: Nd_2_(CO_3_)_3_8H_2_O
Locality: Mitsukoshi, Hizen-cho, Karatsu City, Saga Prefecture, Japan
Source: Marcus Origlieri
Description: Pink platy crystals and cleavages on rock. This sample was used in the structural study by Morrison et al (2013)
Measured chemistry: (Nd_0.95_La_0.61_Pr_0.17_Sm_0.12_Gd_0.08_Y_0.04_Eu_0.03_)_Σ=2_(CO_3_)_3_·7.97H_2_O
Raman shift (cm-1)	intensity
88.7441	0
92.119	88.503
95.4938	208.086
98.8686	438.101
102.243	549.144
105.618	881.981
108.993	927.954
112.368	617.651
115.743	298.714
119.118	12.9305
122.492	171.29
125.867	138.157
129.242	224.861
132.617	471.785
135.992	263.896
139.366	8.5708
142.741	350.023
146.116	1234.81
149.491	1857.97
152.866	1859.66
156.24	1570.18
159.615	1484.72
162.99	1768.34
166.365	2254.42
169.74	2657.42
173.114	2825.12
176.489	2689.8
179.864	2596.21
183.239	2573.89
186.614	2443.78
189.989	2550.91
193.363	2401.59
196.738	2270.97
200.113	2143.16
203.488	1915.8
206.863	1601.64
210.238	1404.47
213.612	1184.18
216.987	1253.87
220.362	1343.44
223.737	1424
227.112	1737.08
230.486	1803.68
233.861	1922.06
237.236	2114.34
240.611	2133.36
243.986	2240.35
247.36	2030.82
250.735	1844.19
254.11	1663.02
257.485	1486.3
260.86	1188.7
264.235	1039.9
267.609	809.54
270.984	659.751
274.359	563.325
277.734	519.317
281.109	575.306
284.483	533.523
287.858	536.15
291.233	406.804
294.608	412.764
297.983	299.42
301.358	331.445
304.732	235.218
308.107	212.966
311.482	124.421
314.857	15.1929
318.231	78.3936
321.606	120.544
324.981	67.4912
328.356	2.3169
331.731	14.9033
335.106	52.3369
338.48	93.3564
341.855	89.0562
345.23	38.8188
348.605	22.5552
351.98	106.48
355.354	139.691
358.729	139.294
362.104	154.272
365.479	196.367
368.854	219.801
372.229	346.74
375.603	372.65
378.978	422.354
382.353	414.349
385.728	398.968
389.103	363.519
392.478	422.229
395.852	412.369
399.227	373.876
402.602	266.234
405.977	169.66
409.352	122.915
412.726	96.3716
416.101	66.7869
419.476	22.6643
422.851	35.946
426.226	52.332
429.6	12.4839
432.975	32.9417
436.35	32.5732
439.725	0.198975
443.1	23.4358
446.474	71.5281
449.849	127.233
453.224	47.4988
456.599	142.954
459.974	226.9
463.349	254.562
466.723	307.346
470.098	335.095
473.473	385.342
476.848	300.424
480.223	325.568
483.598	340.67
486.972	366.905
490.347	456.613
493.722	444.476
497.097	496.241
500.472	551.736
503.846	650.453
507.221	776.128
510.596	903.777
513.971	975.512
517.346	978.093
520.721	969.474
524.095	913.728
527.47	917.276
530.845	894.225
534.22	846.296
537.595	1000.98
540.969	1050.3
544.344	1102.14
547.719	994.599
551.094	926.023
554.469	794.689
557.843	720.82
561.218	563.585
564.593	416.149
567.968	249.717
571.343	224.101
574.717	142.103
578.092	139.969
581.467	87.2334
584.842	74.7129
588.217	0.509033
591.592	34.6323
594.966	3.30322
598.341	1.94458
601.716	28.0598
605.091	3.5249
608.466	13.552
611.841	20.9748
615.215	56.2886
618.59	37.7998
621.965	28.6047
625.34	19.9119
628.715	3.77344
632.089	0.850098
635.464	31.2822
638.839	23.4526
642.214	87.4373
645.589	119.513
648.963	185.836
652.338	220.973
655.713	205.44
659.088	274.067
662.463	194.982
665.837	218.26
669.212	235.487
672.587	202.867
675.962	177.922
679.337	150.637
682.712	127.432
686.086	172.506
689.461	108.184
692.836	63.2893
696.211	34.3302
699.586	44.5464
702.96	35.9834
706.335	34.9314
709.71	6.83789
713.085	6.70166
716.46	62.6227
719.835	19.1112
723.209	64.9576
726.584	112.149
729.959	97.4237
733.334	126.936
736.709	98.4055
740.083	131.678
743.458	84.8119
746.833	109.802
750.208	163.879
753.583	251.352
756.957	299.808
760.332	362.031
763.707	323
767.082	155.684
770.457	111.22
773.832	128.055
777.206	81.3901
780.581	86.6034
783.956	107.64
787.331	113.378
790.706	124.279
794.08	71.6482
797.455	51.9314
800.83	13.4027
804.205	84.8482
807.58	95.4016
810.955	111.72
814.329	72.4619
817.704	82.6847
821.079	99.194
824.454	75.7904
827.829	87.9757
831.203	113.983
834.578	91.6575
837.953	84.8855
841.328	25.7395
844.703	46.327
848.077	76.6414
851.452	75.5894
854.827	4.09668
858.202	6.76807
861.577	29.7502
864.952	8.37756
868.326	10.0035
871.701	63.5488
875.076	33.8353
878.451	35.2622
881.826	5.00037
885.2	47.2484
888.575	15.4551
891.95	49.8342
895.325	12.8457
898.7	30.1482
902.074	52.321
905.449	85.4407
908.824	20.5857
912.199	133.178
915.574	101.476
918.949	123.863
922.323	146.052
925.698	214.689
929.073	262.334
932.448	261.09
935.823	359.313
939.197	336.938
942.572	365.562
945.947	431.506
949.322	471.799
952.697	510.044
956.072	555.405
959.446	634.888
962.821	680.059
966.196	761.953
969.571	814.97
972.946	844.77
976.32	920.66
979.695	1012.76
983.07	1129.29
986.445	1064.1
989.82	1054.45
993.194	1168.13
996.569	1310.34
999.944	1498.92
1003.32	1627.28
1006.69	1796.8
1010.07	1920.45
1013.44	2032.82
1016.82	1988.39
1020.19	1871.36
1023.57	1708.38
1026.94	1563.8
1030.32	1389.12
1033.69	1165.25
1037.07	915.095
1040.44	733.463
1043.82	476.093
1047.19	249.09
1050.57	2.2793
1053.94	54.5391
1057.32	207.684
1060.69	229.088
1064.07	398.289
1067.44	242.867
1070.82	21.5898
1074.19	465.832
1077.57	1323.65
1080.94	2331.25
1084.31	3339.33
1087.69	5158.84
1091.06	7180.39
1094.44	8960.94
1097.81	10733.9
1101.19	13101.4
1104.56	15484.6
1107.94	18376.2
1111.31	20983
1114.69	23461.9
1118.06	25033
1121.44	25983.5
1124.81	26356.9
1128.19	25875.6
1131.56	24649.6
1134.94	23028.8
1138.31	20942.4
1141.69	18237.5
1145.06	15392.6
1148.44	13360.7
1151.81	11694.3
1155.19	9990.98
1158.56	9378.24
1161.93	8913.16
1165.31	8095.1
1168.68	7422.02
1172.06	6541.08
1175.43	5099.58
1178.81	3397.27
1182.18	1496.63
1185.56	196.227
1188.93	798.055
1192.31	304.477
1195.68	1974.8
1199.06	6940.19
1202.43	12990.9
1205.81	21354.4
1209.18	30966.5
1212.56	40302.6
1215.93	49739.1
1219.31	57079.9
1222.68	60592
1226.06	60268.6
1229.43	55070
1232.81	45569.3
1236.18	35321.3
1239.56	24149.8
1242.93	14144.1
1246.31	6684.6
1249.68	1644.61
1253.06	338.266
1256.43	145.484
1259.81	2199.28
1263.18	3690.52
1266.56	3311.39
1269.93	1411.33
