Measurement: Raman, 780 nm, unoriented, Raman Data Processed
Mineral: Lavinskyite
Rruff sample: R141115
Ideal chemistry: K(LiCu^2+^)Cu^2+^_6_(Si_4_O_11_)_2_(OH)_4_
Locality: Wessels mine, South Africa
Source: Jaco and Tania Janse van Nieuwenhuizen
Description: Greenish blue or light blue platy crystals, associated with dark blue scottyite (R141116) and blue wesselsite (with cleavage)
Measured chemistry: (K_0.98_Sr_0.01_)_Σ=0.99_(Li_1.25_Cu_0.71_Na_0.08_)_Σ=2.04_Cu_6_(Si_4.03_O_11_)_2_(OH)_4_; (Lavinskyite is the dark grey material in the image, associated with light grey R141116 scottyite)
Raman shift (cm-1)	intensity
117.112	0
120.487	0.100525
123.862	8.91254
127.237	9.6803
130.611	18.9916
133.986	16.504
137.361	6.14995
140.736	16.9741
144.111	25.1499
147.485	21.9052
150.86	24.2257
154.235	20.8762
157.61	21.2912
160.985	15.0825
164.359	11.8123
167.734	4.30205
171.109	0.033607
174.484	3.30396
177.859	0.181458
181.234	3.44232
184.608	8.59341
187.983	8.79803
191.358	12.8328
194.733	13.7094
198.108	23.0073
201.482	23.6202
204.857	37.2859
208.232	39.3192
211.607	37.5681
214.982	36.3423
218.357	34.5061
221.731	31.7389
225.106	28.3
228.481	25.524
231.856	30.0839
235.231	26.8457
238.605	27.1864
241.98	24.2506
245.355	25.7335
248.73	20.0065
252.105	15.621
255.48	16.3045
258.854	12.2676
262.229	9.08859
265.604	11.6833
268.979	7.81336
272.354	4.96434
275.728	5.16109
279.103	2.56628
282.478	2.65726
285.853	4.04974
289.228	1.1415
292.602	5.36296
295.977	2.4688
299.352	0.474404
302.727	0.775044
306.102	1.37909
309.476	0.060144
312.851	1.38712
316.226	3.73918
319.601	3.29076
322.976	4.66379
326.351	7.49392
329.725	4.50843
333.1	2.3215
336.475	10.3581
339.85	5.41671
343.225	3.77121
346.599	6.217
349.974	4.06704
353.349	4.4706
356.724	7.71207
360.099	2.65367
363.474	3.32175
366.848	1.52493
370.223	2.44422
373.598	3.06148
376.973	1.82971
380.348	4.15234
383.722	4.18811
387.097	0.534771
390.472	2.8224
393.847	9.90257
397.222	5.86499
400.596	3.1433
403.971	3.71824
407.346	5.19897
410.721	7.95889
414.096	5.62272
417.471	8.55981
420.845	8.24765
424.22	8.96322
427.595	7.48904
430.97	11.253
434.345	8.46653
437.719	9.82718
441.094	11.0335
444.469	14.3189
447.844	11.7267
451.219	9.3851
454.594	5.67403
457.968	2.2521
461.343	5.64533
464.718	2.03446
468.093	3.67858
471.468	2.97205
474.842	1.27926
478.217	0.081501
481.592	5.6773
484.967	2.18022
488.342	1.56373
491.716	4.60173
495.091	0.513748
498.466	7.85967
501.841	4.62989
505.216	6.66247
508.591	4.18133
511.965	3.9158
515.34	1.50953
518.715	3.60601
522.09	5.48552
525.465	3.93139
528.84	4.80959
532.214	2.16219
535.589	0.341022
538.964	2.83255
542.339	0.35144
545.713	1.01779
549.088	6.38364
552.463	8.15401
555.838	6.27352
559.213	2.69059
562.588	5.0943
565.962	7.08355
569.337	4.60934
572.712	8.92901
576.087	6.66848
579.462	3.63904
582.837	4.80089
586.211	3.27829
589.586	6.22062
592.961	4.24662
596.336	2.56726
599.711	1.24877
603.085	4.54722
606.46	0.066879
609.835	0.026737
613.21	1.64316
616.585	2.25606
619.96	3.95721
623.334	2.5559
626.709	2.60688
630.084	4.54821
633.459	3.53731
636.833	2.69902
640.208	8.25703
643.583	1.12454
646.958	4.98608
650.333	3.44466
653.708	1.32684
657.082	6.18799
660.457	5.09972
663.832	5.77642
667.207	6.15847
670.582	13.0383
673.957	12.3005
677.331	21.0497
680.706	21.2832
684.081	25.9951
687.456	17.5555
690.831	16.4041
694.205	6.19797
697.58	8.20553
700.955	8.92892
704.33	5.62244
707.705	2.85483
711.079	4.61009
714.454	2.03312
717.829	3.32432
721.204	2.41703
724.579	0.968903
727.953	2.29382
731.328	0.458694
734.703	3.91213
738.078	0.833164
741.453	2.6886
744.828	3.10276
748.202	2.46884
751.577	2.69398
754.952	4.91091
758.327	2.58839
761.702	2.35831
765.077	5.85912
768.451	1.20018
771.826	3.83982
775.201	2.39534
778.576	0.519272
781.951	4.2432
785.325	6.18461
788.7	4.92714
792.075	6.6582
795.45	6.62272
798.825	4.76777
802.199	4.76273
805.574	6.66302
808.949	8.56841
812.324	9.7039
815.699	9.61929
819.073	7.03307
822.448	8.39438
825.823	7.86186
829.198	7.25869
832.573	11.2453
835.948	8.39267
839.322	7.96431
842.697	9.00836
846.072	10.0158
849.447	11.9945
852.822	8.66425
856.197	10.6729
859.571	9.85321
862.946	12.6508
866.321	9.60617
869.696	7.84523
873.071	5.89237
876.445	8.08395
879.82	5.75736
883.195	11.4695
886.57	8.03246
889.945	6.75916
893.319	4.574
896.694	1.61021
900.069	5.06242
903.444	5.83822
906.819	4.46046
910.193	3.61528
913.568	5.37478
916.943	1.58156
920.318	1.38276
923.693	1.58231
927.068	3.77426
930.442	1.67693
933.817	0.254158
937.192	5.77037
940.567	2.0185
943.942	4.69626
947.317	3.38173
950.691	5.34031
954.066	7.46239
957.441	10.0827
960.816	9.50729
964.191	9.90822
967.565	12.0251
970.94	15.3037
974.315	6.75883
977.69	11.6273
981.065	7.23957
984.439	5.9504
987.814	9.68962
991.189	5.47673
994.564	3.76638
997.939	6.21854
1001.31	6.18228
1004.69	4.07484
1008.06	2.47819
1011.44	4.64621
1014.81	3.64862
1018.19	4.41092
1021.56	3.11285
1024.94	5.56434
1028.31	6.48781
1031.69	3.10466
1035.06	2.9543
1038.44	9.86988
1041.81	3.59538
1045.19	2.83005
1048.56	5.42275
1051.94	0.935759
1055.31	3.77954
1058.68	3.80354
1062.06	5.87712
1065.43	7.96464
1068.81	3.93126
1072.18	5.34992
1075.56	1.90146
1078.93	4.69121
1082.31	1.61196
1085.68	2.4509
1089.06	6.38337
1092.43	2.64657
1095.81	7.36287
1099.18	3.51331
1102.56	4.41494
1105.93	1.46989
1109.31	0.180063
1112.68	1.15971
1116.06	0.303242
1119.43	3.23443
1122.81	1.78413
1126.18	2.56532
1129.56	0.523193
1132.93	2.41793
1136.31	3.82629
1139.68	4.00399
1143.06	5.45997
1146.43	2.2432
1149.81	9.74659
1153.18	4.65987
1156.56	5.48263
1159.93	6.40044
1163.31	4.48355
1166.68	1.80269
1170.05	4.87016
1173.43	6.22996
1176.8	1.58062
1180.18	2.23264
1183.55	7.38843
1186.93	4.81372
1190.3	6.71373
1193.68	4.24191
1197.05	8.95318
1200.43	3.64077
1203.8	3.92897
1207.18	0.445172
1210.55	5.97624
1213.93	5.39229
1217.3	7.84086
1220.68	4.5165
1224.05	6.08151
1227.43	6.41096
1230.8	1.58637
1234.18	0.400819
1237.55	5.46074
1240.92	4.84358
1244.3	2.09575
1247.67	8.19327
1251.05	0.381015
1254.42	5.38474
1257.8	3.28861
1261.17	4.41201
1264.55	8.49882
1267.92	0.294558
1271.3	7.68343
1274.67	3.61237
1278.05	7.38878
1281.42	6.1667
1284.8	0
