Measurement: Raman, 780 nm, unoriented, Raman Data Processed
Mineral: Lazulite
Rruff sample: R060494
Ideal chemistry: MgAl_2_(PO_4_)_2_(OH)_2_
Locality: Champion mine, White Mountains, Mono County, California, USA
Source: Michael Scott
Description: Dark-blue coarsely crystalline mass
Measured chemistry: (Mg_0.67_Fe^2+^_0.33_)_Î£=1_Al_2.00_(P_1.00_O_4_)_2_(OH)_2_
Raman shift (cm-1)	intensity
176.894	0
179.787	3.71451
182.68	14.3193
185.573	33.7308
188.465	66.9524
191.358	116.267
194.251	96.2097
197.143	41.2201
200.036	15.5184
202.929	7.0273
205.821	5.14584
208.714	0.412567
211.607	0.015717
214.5	0.080551
217.392	0.661285
220.285	4.68825
223.178	8.54326
226.07	7.11014
228.963	1.4919
231.856	0.763062
234.749	2.50137
237.641	4.6308
240.534	9.23405
243.427	14.5078
246.319	21.3987
249.212	31.9791
252.105	47.9908
254.997	47.7647
257.89	20.1626
260.783	8.65605
263.675	7.10773
266.568	5.74498
269.461	7.40529
272.354	9.71591
275.246	15.6458
278.139	26.7932
281.032	36.0287
283.924	31.3287
286.817	15.8602
289.71	4.95349
292.602	1.38748
295.495	0.843079
298.388	1.56871
301.281	3.49362
304.173	0.446671
307.066	2.30289
309.959	7.43578
312.851	16.1547
315.744	25.6763
318.637	32.4554
321.529	36.797
324.422	39.6624
327.315	45.1609
330.207	51.8338
333.1	56.8114
335.993	58.8176
338.886	59.6449
341.778	62.6007
344.671	63.6698
347.564	63.5241
350.456	60.8669
353.349	57.1238
356.242	57.6248
359.135	54.5551
362.027	51.6206
364.92	49.2764
367.813	45.0534
370.705	46.4638
373.598	49.0437
376.491	54.3138
379.383	51.7256
382.276	43.4426
385.169	35.2397
388.062	35.3307
390.954	37.0382
393.847	34.9105
396.74	36.9338
399.632	36.2826
402.525	35.708
405.418	42.7312
408.31	64.66
411.203	104.89
414.096	129.961
416.988	60.1504
419.881	24.2918
422.774	17.7603
425.667	17.5857
428.559	14.1929
431.452	6.23431
434.345	1.76642
437.237	0.657166
440.13	0.014114
443.023	0.70134
445.915	1.77493
448.808	0.305679
451.701	2.90623
454.594	1.71087
457.486	0.16996
460.379	0.126076
463.272	4.38818
466.164	7.46564
469.057	12.5105
471.95	21.1247
474.842	33.6021
477.735	41.8543
480.628	38.3156
483.521	28.0389
486.413	15.049
489.306	12.9683
492.199	13.4242
495.091	14.2621
497.984	17.5131
500.877	19.5127
503.769	23.0805
506.662	26.4384
509.555	28.9438
512.447	32.4434
515.34	35.4451
518.233	36.8967
521.126	36.9966
524.018	35.692
526.911	33.0131
529.804	29.4644
532.696	26.7231
535.589	23.7813
538.482	21.4394
541.375	17.2475
544.267	15.0917
547.16	12.028
550.053	9.96894
552.945	9.82027
555.838	9.79037
558.731	9.65677
561.623	9.98749
564.516	10.1503
567.409	9.40291
570.302	9.32308
573.194	6.92084
576.087	4.54803
578.98	2.62474
581.872	1.07607
584.765	0.469856
587.658	3.34007
590.55	1.45051
593.443	0.702415
596.336	5.07598
599.229	11.6931
602.121	21.9918
605.014	32.0845
607.907	42.1005
610.799	53.1476
613.692	62.2746
616.585	61.1596
619.477	60.1732
622.37	59.1588
625.263	59.564
628.155	66.0058
631.048	74.7245
633.941	82.4629
636.833	83.5688
639.726	83.1841
642.619	83.6708
645.512	78.7032
648.404	67.9834
651.297	50.5232
654.19	35.1359
657.082	23.7624
659.975	19.138
662.868	15.4337
665.76	13.0342
668.653	11.1987
671.546	8.02992
674.439	6.63449
677.331	3.92419
680.224	2.19953
683.117	0.37545
686.009	0.247437
688.902	1.48741
691.795	0.540497
694.688	0.344696
697.58	1.53414
700.473	1.76547
703.366	5.64941
706.258	7.96904
709.151	9.22209
712.044	10.5041
714.936	10.755
717.829	8.95692
720.722	7.26051
723.614	4.427
726.507	4.36227
729.4	3.65087
732.293	2.98616
735.185	2.79765
738.078	3.33143
740.971	3.17382
743.863	3.32152
746.756	2.04126
749.649	1.12438
752.541	0.082436
755.434	0.802544
758.327	0.631813
761.22	0.912956
764.112	0.276123
767.005	0.23954
769.898	1.11597
772.79	2.31387
775.683	2.5399
778.576	3.36568
781.468	3.62321
784.361	5.06124
787.254	4.9644
790.146	4.36997
793.039	4.57015
795.932	5.59202
798.825	5.47633
801.717	4.63953
804.61	3.81723
807.503	4.06896
810.395	3.67167
813.288	4.68209
816.181	3.49545
819.073	4.7993
821.966	3.17245
824.859	3.94502
827.752	4.74672
830.644	3.85814
833.537	3.79246
836.43	4.55588
839.322	5.12763
842.215	4.27778
845.108	5.13984
848	4.68333
850.893	5.89662
853.786	6.355
856.679	6.81574
859.571	5.20393
862.464	5.35735
865.357	6.16494
868.249	4.69232
871.142	5.09703
874.035	5.42989
876.927	4.25111
879.82	3.68198
882.713	3.8858
885.606	2.71252
888.498	3.73383
891.391	2.34732
894.284	2.08755
897.176	2.44683
900.069	1.60384
902.962	1.31399
905.854	1.88607
908.747	2.42133
911.64	3.51533
914.533	2.82913
917.425	2.58368
920.318	3.2147
923.211	3.67695
926.103	2.38566
928.996	3.19494
931.889	2.10059
934.781	2.24815
937.674	2.3322
940.567	1.93208
943.46	1.31791
946.352	0.642036
949.245	1.11498
952.138	0.038628
955.03	1.08924
957.923	0.129128
960.816	0.070099
963.708	0.841362
966.601	0.562729
969.494	1.24818
972.386	1.43952
975.279	1.08587
978.172	0.183022
981.065	0.520958
983.957	1.49387
986.85	2.54173
989.743	5.90684
992.635	9.77808
995.528	14.1254
998.421	17.1984
1001.31	19.862
1004.21	19.7486
1007.1	18.5398
1009.99	17.581
1012.88	17.8372
1015.78	18.7574
1018.67	18.0644
1021.56	12.8387
1024.45	7.67448
1027.35	3.45469
1030.24	0.396507
1033.13	1.32661
1036.03	3.06803
1038.92	8.38749
1041.81	18.3841
1044.7	39.4098
1047.6	68.2623
1050.49	106.118
1053.38	156.389
1056.28	196.595
1059.17	185.801
1062.06	133.222
1064.95	75.9699
1067.85	39.2803
1070.74	19.5347
1073.63	9.10827
1076.52	5.00117
1079.42	2.47891
1082.31	2.6402
1085.2	5.10264
1088.09	11.2909
1090.99	20.2437
1093.88	31.2259
1096.77	47.0531
1099.66	59.4788
1102.56	55.5965
1105.45	37.7122
1108.34	18.8947
1111.24	7.98354
1114.13	4.05821
1117.02	0.936638
1119.91	2.2662
1122.81	3.86096
1125.7	5.3486
1128.59	8.34452
1131.48	14.0509
1134.38	20.2362
1137.27	22.735
1140.16	18.4454
1143.06	14.3174
1145.95	10.6943
1148.84	8.55794
1151.73	7.63931
1154.63	6.22005
1157.52	6.50748
1160.41	4.99973
1163.31	4.70358
1166.2	4.04408
1169.09	1.5384
1171.98	0.014397
1174.88	2.2428
1177.77	1.75606
1180.66	0.922379
1183.55	0.042107
1186.45	1.06273
1189.34	2.10499
1192.23	1.21102
1195.12	2.6634
1198.02	2.76551
1200.91	4.99094
1203.8	7.16509
1206.69	9.97395
1209.59	10.322
1212.48	11.1694
1215.37	9.89816
1218.27	8.0291
1221.16	6.25435
1224.05	5.82271
1226.94	4.93183
1229.84	3.35174
1232.73	1.48328
1235.62	0.068306
1238.52	0.339989
1241.41	0.333557
1244.3	0.448769
1247.19	2.25129
1250.09	2.33913
1252.98	1.86988
1255.87	2.54477
1258.76	2.00767
1261.66	2.83144
1264.55	2.769
1267.44	1.88687
1270.33	2.02608
1273.23	0.916145
1276.12	1.62979
1279.01	0.712147
1281.9	0.909134
1284.8	0
