Measurement: Raman, 532 nm, unoriented, Raman Data Processed
Mineral: Leningradite
Rruff sample: R070053
Ideal chemistry: Pb^2+^Cu^2+^_3_(V^5+^O_4_)_2_Cl_2_
Locality: main fracture, N breakthrough, Tolbachik Volcano, Kamchatka Peninsula, Russia
Source: Michael Scott
Description: Dark reddish-brown fragment in epoxy
Raman shift (cm-1)	intensity
175.252	0
178.145	6.34033
181.038	28.7593
183.93	50.5523
186.823	17.542
189.716	29.2432
192.608	40.5493
195.501	73.2144
198.394	45.751
201.286	65.6851
204.179	77.9531
207.072	76.8613
209.965	107.1
212.857	97.7754
215.75	50.1875
218.643	65.4678
221.535	127.182
224.428	71.7051
227.321	87.042
230.214	103.065
233.106	40.876
235.999	96.9209
238.892	80.5723
241.784	94.9561
244.677	65.5205
247.57	90.4795
250.462	106.182
253.355	144.881
256.248	62.3516
259.14	78.4258
262.033	111.007
264.926	51.6426
267.819	58.0361
270.711	97.3545
273.604	9.66992
276.497	77.8652
279.389	158.21
282.282	92.0859
285.175	50.3135
288.067	93.6016
290.96	97.0889
293.853	68.3848
296.746	54.917
299.638	44.2012
302.531	26.1621
305.424	71.6416
308.316	73.041
311.209	50.8135
314.102	45.4443
316.994	86.3457
319.887	23.8672
322.78	48.4697
325.673	87.6367
328.565	60.8897
331.458	43.4092
334.351	6.67969
337.243	9.35156
340.136	62.0147
343.029	29.1426
345.921	129.363
348.814	78.5322
351.707	33.4707
354.599	12.6475
357.492	16
360.385	42.5254
363.278	101.171
366.17	34.7734
369.063	62.6533
371.956	22.1865
374.848	67.5381
377.741	67.4697
380.634	32.4932
383.526	81.0498
386.419	53.3242
389.312	32.1025
392.205	80.0693
395.097	26.6328
397.99	86.8643
400.883	161.619
403.775	33.9688
406.668	54.5478
409.561	60.9238
412.454	43.7793
415.346	42.998
418.239	26.1484
421.132	86.2119
424.024	79.7842
426.917	75.4082
429.81	106.348
432.702	10.5156
435.595	164.286
438.488	42.4863
441.38	46.2861
444.273	137.52
447.166	100.976
450.058	24.8906
452.951	64.0264
455.844	73.041
458.737	42.0352
461.629	1.87793
464.522	71.7949
467.415	17.8564
470.307	77.6514
473.2	77.3848
476.093	61.5752
478.986	175.637
481.878	311.685
484.771	44.8945
487.664	86.3115
490.556	4.57324
493.449	112.147
496.342	58.7852
499.234	6.0625
502.127	138.484
505.02	59.3809
507.913	109.602
510.805	52.5508
513.698	4.35938
516.591	147.978
519.483	70.2256
522.376	44.3691
525.269	39.7256
528.161	9.125
531.054	57.9297
533.947	128.041
536.84	70.9004
539.732	97.5
542.625	82.8164
545.518	13.2178
548.41	51.8906
551.303	53.6846
554.196	46.2559
557.088	113.997
559.981	31.1582
562.874	95.209
565.766	31.9951
568.659	75.0537
571.552	42.2539
574.444	66.5478
577.337	58.0283
580.23	114.12
583.123	122.636
586.015	11.9307
588.908	6.32519
591.801	79.2373
594.693	0.986328
597.586	93.0381
600.479	47.4531
603.371	124.791
606.264	49.4883
609.157	23.8545
612.05	67.1269
614.942	29.2295
617.835	70.4551
620.728	5.25781
623.62	128.279
626.513	101.776
629.406	147.202
632.298	59.3623
635.191	109.602
638.084	136.975
640.977	51.7031
643.869	105.374
646.762	194.846
649.655	137.027
652.547	208.778
655.44	143.899
658.333	126.498
661.226	175.774
664.118	161.495
667.011	129.112
669.904	101.723
672.796	165.322
675.689	126.871
678.582	44.3467
681.474	112.402
684.367	69.8193
687.26	70.4463
690.153	78.04
693.045	121.397
695.938	185.827
698.831	112.287
701.723	10.4365
704.616	48.8125
707.509	1.80664
710.401	55.0312
713.294	43.9043
716.187	18.9844
719.079	93.2207
721.972	187.231
724.865	32.832
727.758	34.9277
730.65	96.4043
733.543	3.35156
736.436	91.293
739.328	100.359
742.221	71.0039
745.114	112.84
748.006	97.8731
750.899	65.7246
753.792	18.707
756.684	40.4141
759.577	154.014
762.47	72.3633
765.363	9.26562
768.255	1.69922
771.148	33.6621
774.041	40.7422
776.933	102.613
779.826	89.2422
782.719	19.5371
785.611	21.6055
788.504	67.3652
791.397	13.752
794.29	85.9375
797.182	46.5
800.075	67.9434
802.968	99.1055
805.86	70.2383
808.753	99.4062
811.646	77.9121
814.538	178.312
817.431	87.6269
820.324	131.037
823.217	257.06
826.109	76.6387
829.002	93.9512
831.895	45.5742
834.787	71.8477
837.68	130.397
840.573	87.8887
843.466	37.0488
846.358	15.8652
849.251	150.133
852.144	156.762
855.036	118.742
857.929	143.949
860.822	217.43
863.714	160.205
866.607	291.141
869.5	256.715
872.392	264.498
875.285	122.693
878.178	52.1426
881.071	22.3555
883.963	11.6211
886.856	20.6172
889.749	93.0019
892.641	135.453
895.534	82.8887
898.427	63.8301
901.319	14.75
904.212	26.5371
907.105	24.1074
909.997	121.959
912.89	22.7793
915.783	102.916
918.676	74.3457
921.568	86.5723
924.461	68.7168
927.354	91.9297
930.246	46.4824
933.139	17.8945
936.032	47.3926
938.924	34.4707
941.817	46.2891
944.71	44.8613
947.602	21.8262
950.495	109.295
953.388	36.1172
956.281	17.8242
959.173	70.2754
962.066	74.9434
964.959	40.0938
967.851	4.29688
970.744	4.33398
973.637	118.25
976.529	72.8301
979.422	139.188
982.315	104.189
985.208	75.2441
988.1	67.9219
990.993	77.6797
993.886	76.4844
996.778	80.3184
999.671	108.76
1002.56	104.644
1005.46	96.084
1008.35	115.82
1011.24	87.959
1014.13	20.7988
1017.03	58.0195
1019.92	126.217
1022.81	60.7246
1025.7	168.31
1028.6	143.119
1031.49	30.5566
1034.38	66.8926
1037.28	145.867
1040.17	97.4356
1043.06	35.2695
1045.95	57.998
1048.85	99.4023
1051.74	86.041
1054.63	99.2949
1057.53	19.1738
1060.42	127.201
1063.31	110.812
1066.2	30.5664
1069.1	12.1719
1071.99	47.2188
1074.88	105.9
1077.77	69.9023
1080.67	8.22461
1083.56	78.0117
1086.45	9.81641
1089.35	154.723
1092.24	46.166
1095.13	141.027
1098.02	65.4629
1100.92	47.3047
1103.81	122.01
1106.7	134.156
1109.59	167.344
1112.49	45.168
1115.38	24.3711
1118.27	25.2246
1121.16	27.1094
1124.06	59.4863
1126.95	64.2285
1129.84	49.4941
1132.73	47.9805
1135.63	134.484
1138.52	116.689
1141.41	85.2559
1144.31	114.959
1147.2	59.6426
1150.09	111.992
1152.98	152.676
1155.88	116.838
1158.77	72.125
1161.66	122.314
1164.56	6.26758
1167.45	71.4141
1170.34	128.951
1173.23	77.0371
1176.13	109.598
1179.02	18.002
1181.91	98.6172
1184.8	83.3848
1187.7	47.584
1190.59	90.3613
1193.48	121.916
1196.38	151.928
1199.27	125.803
1202.16	29.7344
1205.05	70.1973
1207.94	40.5059
1210.84	50.3965
1213.73	65.2305
1216.62	52.666
1219.52	115.408
1222.41	75.7266
1225.3	187.389
1228.19	121.344
1231.09	87.7637
1233.98	108.647
1236.87	52.0879
1239.77	179.758
