Measurement: Raman, 780 nm, unoriented, Raman Data Processed
Mineral: Leucophanite
Rruff sample: R060207
Ideal chemistry: NaCaBeSi_2_O_6_F
Locality: Mont Saint-Hilaire, Rouville County, Quebec, Canada
Source: Royal Ontario Museum
Description: Pale yellow tabular crystal
Measured chemistry: Na_1.00_Ca_1.00_Be_1.00_Si_2.00_O_6_(F_0.80_(OH)_0.20_)_Î£=1_; (OH)  estimated by charge balance; Be estimated by difference
Raman shift (cm-1)	intensity
91.8272	0
94.7198	363.754
97.6125	202.803
100.505	113.805
103.398	261.781
106.291	986.971
109.183	1054.79
112.076	424.801
114.969	242.82
117.862	61.4844
120.754	92.5508
123.647	64.5781
126.54	214.228
129.432	590.25
132.325	737.414
135.218	1012.42
138.11	1326.56
141.003	1265.14
143.896	1111.52
146.788	1420.58
149.681	1408.45
152.574	1516.09
155.466	1880.93
158.359	1721.87
161.252	1335.04
164.145	1004.5
167.037	600.574
169.93	39.6172
172.823	141.676
175.715	39.6211
178.608	4.05078
181.501	357.195
184.393	286.664
187.286	915.031
190.179	952.734
193.072	1533.4
195.964	1715.32
198.857	1776.24
201.75	1805.8
204.642	979.277
207.535	604.269
210.428	104.484
213.321	472.684
216.213	191.594
219.106	88.4297
221.999	372.586
224.891	1061.46
227.784	2483.68
230.677	2986.45
233.569	3188.77
236.462	2518.03
239.355	1717.29
242.248	355.164
245.14	636.406
248.033	392.707
250.926	369.051
253.818	1540.39
256.711	3023.13
259.604	4004.02
262.496	4790.56
265.389	5055.53
268.282	6380.39
271.175	7156.95
274.067	7521.85
276.96	6624.67
279.853	6339.09
282.745	6156.68
285.638	7046.64
288.531	8462.54
291.423	11756.2
294.316	14368.8
297.209	17666.8
300.101	19499.8
302.994	19785.9
305.887	18417.5
308.78	17915.4
311.672	19689.8
314.565	22972.7
317.458	28036.1
320.35	33505.6
323.243	37852.7
326.136	39324.8
329.029	39726.5
331.921	38766.6
334.814	38066.6
337.707	36403.1
340.599	33817
343.492	28854.4
346.385	24309.7
349.277	19966.1
352.17	16712.5
355.063	13279.6
357.955	10772.1
360.848	7874.16
363.741	4917.88
366.634	1085.57
369.526	1784.08
372.419	4262.1
375.312	5704.58
378.204	5465.47
381.097	3563.64
383.99	216.859
386.882	4438.44
389.775	10645.8
392.668	18755.4
395.561	28081.4
398.453	39957.9
401.346	55275.3
404.239	75068.3
407.131	100650
410.024	131444
412.917	168846
415.81	207949
418.702	241968
421.595	266198
424.488	279032
427.38	284608
430.273	287922
433.166	288808
436.058	284778
438.951	275112
441.844	261058
444.736	245540
447.629	229876
450.522	216742
453.415	200056
456.307	177828
459.2	152444
462.093	127286
464.985	104093
467.878	81638.8
470.771	61119.7
473.663	43957.3
476.556	32084.7
479.449	23384.5
482.342	19300.2
485.234	17067.8
488.127	17355.8
491.02	19259.7
493.912	22083
496.805	25290
499.698	27114.6
502.591	27450.4
505.483	26183.8
508.376	25109.7
511.269	25679.2
514.161	25795.2
517.054	26662.1
519.947	29096
522.839	31885.2
525.732	34304.8
528.625	37962.9
531.518	39713.4
534.41	39042.3
537.303	36154.9
540.196	32211.8
543.088	26639.2
545.981	20388.2
548.874	14774.3
551.766	9863.42
554.659	5629.31
557.552	2276.19
560.444	402.547
563.337	1278.69
566.23	2639.04
569.123	2600.72
572.015	3582.93
574.908	3128.8
577.801	2380.09
580.693	1734.88
583.586	602.164
586.479	1118.88
589.371	2684.17
592.264	4538.45
595.157	6469.73
598.05	8592.66
600.942	9686.91
603.835	12095
606.728	14117.6
609.62	15569.9
612.513	18051
615.406	19748.9
618.298	22197.3
621.191	24670.5
624.084	27186.4
626.977	29287.9
629.869	30833.3
632.762	31499.7
635.655	32292.9
638.547	31137.2
641.44	29131.8
644.333	26827.7
647.226	23848.9
650.118	20300.8
653.011	16797.5
655.904	12301.2
658.796	9041.93
661.689	6529.64
664.582	4183.34
667.474	2939.59
670.367	2232.34
673.26	2922.45
676.153	3588.35
679.045	3097.12
681.938	602.906
684.831	170.125
687.723	319.586
690.616	86.7266
693.509	1485.74
696.401	2275.12
699.294	3839.37
702.187	5004.71
705.08	6213.29
707.972	7387.19
710.865	7694.57
713.758	7980.09
716.65	7902.57
719.543	8342.92
722.436	8782.01
725.328	9011.8
728.221	9286.6
731.114	9391.78
734.006	9540.81
736.899	9621.02
739.792	10518.5
742.685	10837.8
745.577	10695.8
748.47	10658.7
751.363	10947
754.255	10826.3
757.148	10604.2
760.041	10204
762.933	9979.86
765.826	10273.1
768.719	10170.6
771.612	10342.3
774.504	10170.5
777.397	10565
780.29	10359.6
783.182	9509.92
786.075	9105.27
788.968	8666.73
791.861	7408.88
794.753	6659.97
797.646	5412.84
800.539	4030.19
803.431	3130.73
806.324	2516.89
809.217	1898.91
812.109	1157.24
815.002	300.676
817.895	207.215
820.788	53.7305
823.68	264.184
826.573	398.16
829.466	437.078
832.358	568.441
835.251	411.082
838.144	129.113
841.036	415.812
843.929	649.519
846.822	1220.02
849.715	1817.03
852.607	2163.8
855.5	2893.02
858.393	3365.89
861.285	4052.34
864.178	4161.94
867.071	5259.19
869.963	6044.17
872.856	6385.78
875.749	7410.92
878.641	7488.53
881.534	8031.5
884.427	8314.21
887.32	8467.47
890.212	8045.31
893.105	7898.05
895.998	7678.58
898.89	7125.06
901.783	6343.03
904.676	6011.37
907.568	5233.66
910.461	4150.15
913.354	3850.69
916.247	2976.84
919.139	2669.65
922.032	1953.86
924.925	1417.55
927.817	933.307
930.71	821.877
933.603	654.689
936.495	211.861
939.388	105.678
942.281	163.391
945.174	25.5156
948.066	113.764
950.959	27.373
953.852	182.123
956.744	306.346
959.637	24.0898
962.53	257.682
965.423	483.416
968.315	818.606
971.208	458.584
974.101	678.283
976.993	349.557
979.886	833.393
982.779	806.631
985.671	859.461
988.564	746
991.457	993.207
994.35	1212.66
997.242	866.731
1000.13	1215.44
1003.03	1326.69
1005.92	1014.43
1008.81	1055.22
1011.71	1298.75
1014.6	1170.46
1017.49	1543.21
1020.38	1826.54
1023.28	2684.84
1026.17	3518.38
1029.06	2038.94
1031.95	1437.67
1034.85	1029.93
1037.74	1297.04
1040.63	716.41
1043.53	1510.85
1046.42	1449.53
1049.31	2064.52
1052.2	2234.49
1055.1	1861.06
1057.99	2008.38
1060.88	1980.54
1063.77	2793.01
1066.67	2585.74
1069.56	2444.12
1072.45	2704.45
1075.35	2560.17
1078.24	2502.85
1081.13	2719.11
1084.02	2885.12
1086.92	2837.18
1089.81	2710.71
1092.7	2661.99
1095.59	2287.19
1098.49	2038.85
1101.38	2003.93
1104.27	1729.67
1107.16	1124.03
1110.06	1228.08
1112.95	567.516
1115.84	177.195
1118.74	350.027
1121.63	269.414
1124.52	182.086
1127.41	533.602
1130.31	1235.02
1133.2	1771.41
1136.09	2186.6
1138.98	2473.58
1141.88	2739.61
1144.77	2859.88
1147.66	3392.13
1150.56	2272.05
1153.45	2200.35
1156.34	1232.71
1159.23	1403.73
1162.13	1309.64
1165.02	1048.52
1167.91	688.492
1170.8	348.117
1173.7	15.1328
1176.59	3.875
