Measurement: Raman, 780 nm, unoriented, Raman Data Processed
Mineral: Libethenite
Rruff sample: R050613
Ideal chemistry: Cu^2+^_2_PO_4_(OH)
Locality: Libethen, Banskobystricky, Slovakia
Source: University of Arizona Mineral Museum
Description: Dark green wedge-shaped prismatic crystals
Measured chemistry: (Cu_0.98_Zn_0.02_)_2_(P_1.00_O_4_)((OH)_0.94_F_0.06_)
Raman shift (cm-1)	intensity
149.919	0
152.812	0.071278
155.705	0.690603
158.597	0.128969
161.49	1.0553
164.383	0.4436
167.276	1.2146
170.168	1.71295
173.061	1.86075
175.954	2.48273
178.846	3.12179
181.739	3.01183
184.632	1.76237
187.524	2.04894
190.417	2.34517
193.31	1.91512
196.203	0.204308
199.095	0.359022
201.988	0.162746
204.881	0.09432
207.773	0.646049
210.666	0.927666
213.559	0.446392
216.451	1.49952
219.344	0.532692
222.237	0.297161
225.13	0.166512
228.022	0.703379
230.915	0.950222
233.808	1.26571
236.7	0.936722
239.593	1.48125
242.486	2.05521
245.378	1.6662
248.271	1.62735
251.164	1.7491
254.056	1.78073
256.949	2.43885
259.842	1.67015
262.735	2.56463
265.627	1.81105
268.52	2.62087
271.413	1.68874
274.305	1.53628
277.198	2.99278
280.091	2.7985
282.983	2.9869
285.876	3.79305
288.769	3.80805
291.662	3.11347
294.554	2.98881
297.447	2.78585
300.34	2.4965
303.232	2.36984
306.125	1.63103
309.018	1.89952
311.911	2.03252
314.803	1.30027
317.696	1.10368
320.589	1.10359
323.481	0.180293
326.374	0.308083
329.267	0.095243
332.159	0.333161
335.052	0.320695
337.945	0.454639
340.837	0.218637
343.73	0.39559
346.623	0.346545
349.516	0.570076
352.408	0.125432
355.301	0.425533
358.194	0.778753
361.086	0.627961
363.979	1.86627
366.872	2.01452
369.764	2.87769
372.657	2.2219
375.55	2.6039
378.442	2.52601
381.335	2.20346
384.228	1.09323
387.121	0.687593
390.013	0.395492
392.906	0.24484
395.799	0.666501
398.691	0.474822
401.584	0.128772
404.477	0.428005
407.37	0.305739
410.262	0.200733
413.155	0.261677
416.048	1.21891
418.94	0.818798
421.833	0.18594
424.726	0.087403
427.618	0.706394
430.511	0.608294
433.404	0.634403
436.296	1.16728
439.189	0.397707
442.082	0.875452
444.975	0.502543
447.867	0.487631
450.76	0.360645
453.653	0.57502
456.545	1.45202
459.438	1.19291
462.331	1.1868
465.224	1.13889
468.116	1.36725
471.009	0.853533
473.902	0.595427
476.794	0.816781
479.687	0.619811
482.58	0.33317
485.472	1.6161
488.365	1.07562
491.258	0.856745
494.151	0.556517
497.043	0.006464
499.936	0.311052
502.829	0.28048
505.721	0.686445
508.614	0.939265
511.507	0.06731
514.399	0.465695
517.292	0.015884
520.185	0.300469
523.077	0.057396
525.97	0.245827
528.863	0.391201
531.756	0.347371
534.648	0.517748
537.541	0.277961
540.434	0.32298
543.326	0.015711
546.219	0.360265
549.112	0.260406
552.004	1.471
554.897	1.10087
557.79	1.04458
560.683	0.947185
563.575	0.475775
566.468	0.679856
569.361	1.25463
572.253	0.891497
575.146	0.857724
578.039	0.687584
580.931	0.741471
583.824	0.309258
586.717	0.282304
589.61	0.177783
592.502	0.805232
595.395	0.511672
598.288	0.045364
601.18	0.38051
604.073	0.319741
606.966	0.166142
609.858	0.076178
612.751	0.633798
615.644	0.320662
618.537	0.15279
621.429	0.484816
624.322	0.862876
627.215	0.459159
630.107	0.642884
633	0.701198
635.893	0.157191
638.785	0.65401
641.678	0.758985
644.571	0.197916
647.463	0.851672
650.356	1.00722
653.249	0.551299
656.141	0.59769
659.034	0.821612
661.927	0.678314
664.82	1.14397
667.712	0.726044
670.605	0.546564
673.498	0.440857
676.39	0.330282
679.283	0.300488
682.176	0.598448
685.068	0.288246
687.961	0.269079
690.854	0.514458
693.747	0.351162
696.639	0.605513
699.532	0.743979
702.425	0.094887
705.317	0.026387
708.21	0.717171
711.103	1.13714
713.995	0.410806
716.888	0.73836
719.781	0.80875
722.674	0.555483
725.566	0.932931
728.459	0.064108
731.352	0.402172
734.244	0.940112
737.137	0.324974
740.03	0.745287
742.923	0.415487
745.815	0.872942
748.708	0.560036
751.601	0.819525
754.493	0.764061
757.386	0.758686
760.279	0.803985
763.171	0.059905
766.064	0.626655
768.957	0.51602
771.85	0.840768
774.742	0.487908
777.635	0.717256
780.528	0.303878
783.42	0.836011
786.313	0.968298
789.206	0.079839
792.098	0.426448
794.991	0.437229
797.884	0.459449
800.776	0.433599
803.669	0.85562
806.562	0.337319
809.455	1.02261
812.347	1.14864
815.24	0.577074
818.133	1.93291
821.025	1.21544
823.918	1.49225
826.811	1.52714
829.703	1.53716
832.596	1.58157
835.489	1.79521
838.381	1.51665
841.274	1.1511
844.167	1.61044
847.06	1.39674
849.952	2.21483
852.845	1.17272
855.738	1.24372
858.63	1.60067
861.523	1.41957
864.416	0.916935
867.308	1.17179
870.201	0.801233
873.094	2.29166
875.987	1.14978
878.879	1.70701
881.772	0.771818
884.665	0.603226
887.557	1.08488
890.45	0.811001
893.343	1.00877
896.236	0.242192
899.128	0.479293
902.021	0.153087
904.914	0.55818
907.806	0.116945
910.699	0.293924
913.592	0.021401
916.484	0.787782
919.377	0.132133
922.27	0.028975
925.163	0.724509
928.055	0.552005
930.948	0.706097
933.841	0.567411
936.733	0.313595
939.626	0.112569
942.519	0.227909
945.411	0.204198
948.304	0.778365
951.197	0.55746
954.09	0.874814
956.982	1.07037
959.875	1.71349
962.768	2.63316
965.66	2.37507
968.553	2.95027
971.446	2.74
974.338	2.4059
977.231	1.55205
980.124	1.66018
983.016	1.07235
985.909	1.38321
988.802	0.309508
991.694	1.20913
994.587	1.3034
997.48	1.30081
1000.37	1.8116
1003.26	0.978665
1006.16	1.18736
1009.05	1.9026
1011.94	1.98218
1014.84	0.979627
1017.73	0.683003
1020.62	0.956202
1023.51	0.488719
1026.41	0.268668
1029.3	0.206271
1032.19	0.708544
1035.09	0.233357
1037.98	0.907869
1040.87	0.507888
1043.76	0.829948
1046.66	0.728114
1049.55	0.067268
1052.44	0.854817
1055.33	0.705045
1058.23	0.738424
1061.12	0.057793
1064.01	0.352909
1066.9	1.23582
1069.8	0.358188
1072.69	0.206363
1075.58	0.328707
1078.47	0.406452
1081.37	0.52573
1084.26	0.857037
1087.15	0.561937
1090.05	0.635191
1092.94	0.383848
1095.83	0.799583
1098.72	0.832802
1101.62	1.08773
1104.51	0.475965
1107.4	0.291351
1110.3	0.250909
1113.19	0.505844
1116.08	0.212089
1118.97	0.638112
1121.87	0.583208
1124.76	0.397023
1127.65	0.100659
1130.54	0.448584
1133.44	0.222821
1136.33	0.433627
1139.22	0.038742
1142.12	0.001014
1145.01	0.351964
1147.9	0.861955
1150.79	0.047772
1153.69	0.915067
1156.58	0.870195
1159.47	0.514056
1162.36	0.928435
1165.26	0.594108
1168.15	0.067269
1171.04	1.13509
1173.93	0.564338
1176.83	0.257654
1179.72	0.455318
1182.61	0.81491
1185.51	0.626737
1188.4	0.398571
1191.29	0.19948
1194.18	0.299114
1197.08	0.407625
1199.97	0.433153
1202.86	0.909669
1205.75	0.28429
1208.65	0.380752
1211.54	0.969361
1214.43	0.755487
1217.33	0.319463
1220.22	0.775682
1223.11	0.625516
1226	0.976011
1228.9	1.02875
1231.79	0.410248
1234.68	0.420582
1237.57	0.006812
1240.47	0.72942
1243.36	1.1924
1246.25	0.316903
1249.14	1.40538
1252.04	0.248558
1254.93	0.791924
1257.82	1.06284
1260.71	0.897745
1263.61	0.456542
1266.5	1.18358
1269.39	0.09196
1272.29	1.2129
1275.18	1.03149
1278.07	0.170628
1280.96	0.590661
1283.86	0.587119
