Measurement: Raman, 780 nm, unoriented, Raman Data Processed
Mineral: Libethenite
Rruff sample: R050147
Ideal chemistry: Cu^2+^_2_PO_4_(OH)
Locality: Los Azules mine, Copiapo, Chile
Source: Jim McGlasson
Description: Dark green prismatic crystals, associated with smaller lighter green pseudomalachite
Measured chemistry: Cu_2.00_(P_1.00_O_4_)((OH)_0.89_F_0.11_)_Î£=1_
Raman shift (cm-1)	intensity
140.232	0
143.125	1.15383
146.018	0.398087
148.91	1.34043
151.803	0.684631
154.696	1.83528
157.588	2.79075
160.481	3.36457
163.374	4.17852
166.266	3.84752
169.159	4.11654
172.052	5.08983
174.945	5.24733
177.837	6.2265
180.73	5.78765
183.623	5.42815
186.515	5.30276
189.408	3.91515
192.301	1.71303
195.193	1.79547
198.086	1.93113
200.979	0.866016
203.871	0.270092
206.764	1.84757
209.657	0.143738
212.55	0.766697
215.442	0.934086
218.335	0.549942
221.228	0.163628
224.12	0.537018
227.013	0.254505
229.906	1.75162
232.798	1.01239
235.691	1.21892
238.584	3.1286
241.477	2.68458
244.369	2.47763
247.262	3.77968
250.155	3.56778
253.047	4.26643
255.94	5.55697
258.833	3.69363
261.726	5.2172
264.618	5.57352
267.511	7.1896
270.404	7.11408
273.296	7.85843
276.189	7.49879
279.082	10.3756
281.974	9.19526
284.867	11.8755
287.76	9.9015
290.652	10.0264
293.545	8.37705
296.438	7.61516
299.331	6.79668
302.223	6.19493
305.116	3.65958
308.009	3.77068
310.901	1.65499
313.794	3.01144
316.687	0.792358
319.579	2.24966
322.472	0.664408
325.365	0.592363
328.258	0.826254
331.15	2.14536
334.043	1.50232
336.936	0.175058
339.828	1.03876
342.721	1.52053
345.614	0.688616
348.507	1.34087
351.399	2.79163
354.292	1.71598
357.185	1.73926
360.077	0.415558
362.97	2.41771
365.863	1.70954
368.755	1.70752
371.648	4.96971
374.541	2.74149
377.433	2.90176
380.326	2.6031
383.219	2.01928
386.112	3.25281
389.004	1.97828
391.897	0.107512
394.79	1.24346
397.682	1.38292
400.575	0.003601
403.468	0.126102
406.361	0.659582
409.253	0.619253
412.146	1.05922
415.039	0.458027
417.931	0.931599
420.824	0.204155
423.717	1.15438
426.609	0.31139
429.502	0.167799
432.395	1.48368
435.288	1.00959
438.18	0.426798
441.073	0.348867
443.966	0.364937
446.858	2.32545
449.751	2.24546
452.644	1.63917
455.536	1.69599
458.429	2.31265
461.322	3.44115
464.214	2.25108
467.107	1.96826
470	1.92802
472.893	1.50344
475.785	2.11918
478.678	0.76104
481.571	1.35345
484.463	2.03276
487.356	2.71558
490.249	1.19762
493.142	0.146496
496.034	1.19131
498.927	0.397867
501.82	0.617182
504.712	1.37891
507.605	0.233398
510.498	0.880064
513.39	0.936167
516.283	1.46917
519.176	1.7204
522.068	1.9264
524.961	1.59932
527.854	0.601482
530.747	0.063921
533.639	0.444174
536.532	0.555576
539.425	0.696861
542.317	2.43062
545.21	2.75668
548.103	3.2616
550.995	3.13611
553.888	1.98012
556.781	0.32868
559.674	2.19195
562.566	0.784796
565.459	3.49748
568.352	2.36247
571.244	1.38543
574.137	2.6633
577.03	1.70859
579.923	2.35589
582.815	1.79682
585.708	0.365263
588.601	0.634024
591.493	0.402239
594.386	1.11146
597.279	1.47936
600.171	0.170008
603.064	0.593809
605.957	0.420218
608.849	1.11966
611.742	1.88602
614.635	1.98748
617.528	2.40117
620.42	0.996622
623.313	1.10051
626.206	2.90174
629.098	2.48257
631.991	3.58001
634.884	1.43183
637.776	1.66156
640.669	2.27732
643.562	2.24661
646.455	2.0457
649.347	2.3703
652.24	1.6952
655.133	1.23733
658.025	1.01154
660.918	1.32759
663.811	0.15041
666.703	1.83876
669.596	1.28801
672.489	0.999943
675.381	0.189018
678.274	1.95382
681.167	0.10791
684.06	1.16741
686.952	0.975864
689.845	1.12429
692.738	0.773972
695.63	2.08922
698.523	0.60384
701.416	2.16465
704.308	1.45151
707.201	2.10836
710.094	0.644508
712.987	1.19311
715.879	0.665409
718.772	2.09601
721.665	0.814308
724.557	1.39357
727.45	1.7554
730.343	0.864141
733.236	0.145481
736.128	1.75334
739.021	0.583691
741.914	0.263794
744.806	0.41272
747.699	0.786194
750.592	0.114592
753.484	0.989811
756.377	0.166504
759.27	1.34479
762.163	0.951248
765.055	1.02266
767.948	0.213102
770.841	0.583435
773.733	0.209572
776.626	2.36057
779.519	1.33254
782.411	0.777519
785.304	0.697996
788.197	1.13864
791.09	2.12818
793.982	0.495394
796.875	1.82764
799.768	1.17535
802.66	1.65022
805.553	0.941307
808.446	2.4559
811.338	2.86017
814.231	2.04113
817.124	3.23382
820.016	2.92775
822.909	4.03062
825.802	4.06055
828.695	3.33247
831.587	2.55084
834.48	2.64849
837.373	3.86253
840.265	4.31584
843.158	3.49442
846.051	3.95835
848.943	5.41708
851.836	2.30593
854.729	4.25215
857.622	4.22437
860.514	4.95953
863.407	3.21741
866.3	4.75346
869.192	4.8657
872.085	3.73371
874.978	1.17219
877.87	3.60357
880.763	3.23135
883.656	3.30899
886.549	2.65879
889.441	1.75152
892.334	2.32569
895.227	1.57449
898.119	0.968174
901.012	0.021
903.905	2.14269
906.798	1.59188
909.69	0.277748
912.583	1.12888
915.476	0.420254
918.368	1.161
921.261	0.277508
924.154	0.022726
927.046	0.526974
929.939	1.66025
932.832	0.703878
935.725	1.18506
938.617	2.0661
941.51	1.10941
944.403	1.43877
947.295	0.8526
950.188	2.28903
953.081	2.5687
955.973	4.02623
958.866	3.33498
961.759	4.82525
964.652	5.97991
967.544	6.16709
970.437	5.97286
973.33	3.47877
976.222	2.23664
979.115	3.37025
982.008	2.47988
984.9	1.20689
987.793	1.71057
990.686	1.44334
993.578	2.24774
996.471	0.264229
999.364	1.29692
1002.26	0.434635
1005.15	0.953751
1008.04	1.19857
1010.93	0.971148
1013.83	1.46297
1016.72	1.82765
1019.61	0.386959
1022.5	0.768358
1025.4	0.988224
1028.29	0.634861
1031.18	1.36303
1034.08	1.35484
1036.97	2.09441
1039.86	2.14958
1042.75	1.52088
1045.65	2.24208
1048.54	0.273861
1051.43	1.59528
1054.33	0.620249
1057.22	1.07152
1060.11	1.63273
1063	1.79551
1065.9	2.31581
1068.79	1.13703
1071.68	1.1245
1074.57	0.231667
1077.47	0.432798
1080.36	0.804852
1083.25	0.392515
1086.14	1.0513
1089.04	1.22581
1091.93	1.87042
1094.82	1.20285
1097.72	0.874016
1100.61	2.45956
1103.5	0.610762
1106.39	2.34868
1109.29	0.246109
1112.18	0.046041
1115.07	1.49766
1117.96	1.99329
1120.86	1.28679
1123.75	0.960953
1126.64	0.323483
1129.54	0.26475
1132.43	0.55785
1135.32	1.20899
1138.21	1.0408
1141.11	1.06519
1144	1.5804
1146.89	0.059204
1149.78	1.23847
1152.68	1.06137
1155.57	0.570154
1158.46	0.76144
1161.36	0.634075
1164.25	1.10414
1167.14	0.885632
1170.03	0.768507
1172.93	1.94675
1175.82	2.02286
1178.71	0.851114
1181.6	1.60142
1184.5	1.00265
1187.39	0.942678
1190.28	1.49857
1193.17	0.730841
1196.07	2.35962
1198.96	2.21184
1201.85	0.293026
1204.75	2.49973
1207.64	1.8329
1210.53	0.617994
1213.42	1.17503
1216.32	1.48195
1219.21	1.04499
1222.1	1.35985
1224.99	0.092249
1227.89	0.748371
1230.78	0.37286
1233.67	0.888386
1236.57	1.37472
1239.46	0.294989
1242.35	1.939
1245.24	0.875753
1248.14	0.777464
1251.03	0.924227
1253.92	1.50855
1256.81	0.819393
1259.71	1.41389
1262.6	1.20637
1265.49	0.638435
1268.38	0.530514
1271.28	2.07751
1274.17	0.045969
1277.06	1.38367
1279.96	0.453096
1282.85	0.504438
1285.74	1.00483
