Measurement: Raman, 780 nm, unoriented, Raman Data Processed
Mineral: Likasite
Rruff sample: R090009
Ideal chemistry: Cu^2+^_3_N^5+^O_3_(OH)_5_2H_2_O
Locality: Likasi Mine, Jadotville, Katanga, Zaire
Source: William W. Pinch
Description: Electric blue acicular crystals in a vug on cuprite matrix.
Raman shift (cm-1)	intensity
159.391	0
162.284	3.4761
165.177	0.295055
168.069	4.95213
170.962	5.64872
173.855	3.37418
176.747	2.11938
179.64	5.75021
182.533	3.20914
185.425	4.70519
188.318	2.01884
191.211	0.805698
194.104	0.011375
196.996	3.22099
199.889	7.45261
202.782	5.17288
205.674	0.254318
208.567	4.17409
211.46	3.0079
214.352	4.52256
217.245	5.42907
220.138	3.92273
223.03	6.59269
225.923	4.86068
228.816	3.17315
231.709	6.66466
234.601	2.75492
237.494	6.86093
240.387	5.96067
243.279	7.44715
246.172	9.3744
249.065	10.0653
251.958	9.9956
254.85	7.49552
257.743	7.77006
260.636	9.22239
263.528	8.78722
266.421	6.55267
269.314	5.76512
272.207	5.70542
275.099	7.03501
277.992	5.38988
280.885	6.39538
283.777	4.20935
286.67	4.95172
289.563	0.71698
292.455	3.84994
295.348	1.25079
298.241	3.42132
301.134	4.65771
304.026	3.16735
306.919	2.27347
309.812	0.359436
312.704	1.02851
315.597	2.03463
318.49	4.78332
321.382	3.57834
324.275	0.905415
327.168	1.05503
330.06	4.5623
332.953	3.45471
335.846	4.99302
338.739	3.53187
341.631	0.170769
344.524	0.668877
347.417	4.48679
350.309	4.31377
353.202	1.45692
356.095	2.37809
358.987	1.93169
361.88	4.94964
364.773	0.848953
367.666	6.9534
370.558	4.90901
373.451	2.05782
376.344	6.81658
379.236	4.91061
382.129	2.15713
385.022	2.54792
387.914	1.04455
390.807	3.31903
393.7	4.18726
396.592	0.252472
399.485	1.55012
402.378	4.0046
405.271	3.12253
408.163	4.76374
411.056	0.493469
413.949	1.34872
416.841	2.46388
419.734	5.55261
422.627	3.96835
425.519	3.53057
428.412	0.488358
431.305	6.89762
434.198	2.56515
437.09	5.97081
439.983	3.97562
442.876	0.406277
445.768	1.24737
448.661	3.80518
451.554	5.29224
454.447	2.52414
457.339	0.334862
460.232	0.525047
463.125	2.29266
466.017	0.917168
468.91	5.52051
471.803	1.60799
474.695	5.21363
477.588	4.94571
480.481	0.204029
483.373	4.45484
486.266	5.0322
489.159	8.06231
492.052	2.09643
494.944	6.86321
497.837	5.35288
500.73	1.25986
503.622	5.75
506.515	5.35553
509.408	4.89104
512.301	5.96894
515.193	5.66306
518.086	2.34063
520.979	6.55949
523.871	4.81241
526.764	1.97907
529.657	3.83582
532.549	6.62745
535.442	4.73255
538.335	2.74717
541.227	5.38969
544.12	3.43481
547.013	2.18365
549.906	4.29368
552.798	6.53271
555.691	3.05635
558.584	1.41741
561.476	0.660648
564.369	1.39851
567.262	2.8966
570.154	2.3235
573.047	0.087429
575.94	1.97738
578.833	3.35517
581.725	1.95092
584.618	3.78725
587.511	0.223644
590.403	2.24453
593.296	4.71771
596.189	1.72215
599.082	2.26348
601.974	4.54711
604.867	4.47616
607.76	1.42165
610.652	5.10163
613.545	6.04128
616.438	6.08735
619.33	1.48011
622.223	5.8662
625.116	6.12173
628.009	6.29076
630.901	3.6538
633.794	4.93173
636.687	2.15896
639.579	5.48666
642.472	7.17294
645.365	4.82217
648.257	4.62446
651.15	6.49364
654.043	2.70288
656.936	1.11122
659.828	2.69192
662.721	6.10102
665.614	5.49501
668.506	0.735489
671.399	5.56648
674.292	6.06531
677.184	6.26316
680.077	3.71098
682.97	1.88055
685.862	3.51103
688.755	2.44614
691.648	4.54527
694.541	2.08444
697.433	7.19954
700.326	3.58644
703.219	4.82747
706.111	2.18444
709.004	5.01391
711.897	5.05833
714.789	5.92747
717.682	6.31527
720.575	4.94901
723.468	3.11705
726.36	3.66501
729.253	5.28429
732.146	5.11073
735.038	5.66409
737.931	2.127
740.824	4.84824
743.716	3.37947
746.609	3.98314
749.502	2.13093
752.395	8.21008
755.287	3.231
758.18	3.50074
761.073	4.62146
763.965	5.549
766.858	3.03062
769.751	2.14936
772.644	1.25959
775.536	4.91852
778.429	2.59241
781.322	2.57036
784.214	2.25203
787.107	0.848316
790	7.8282
792.892	3.23178
795.785	4.38795
798.678	2.25808
801.571	5.3483
804.463	6.83254
807.356	4.5005
810.249	6.42733
813.141	4.21934
816.034	3.15895
818.927	6.12725
821.819	4.58551
824.712	2.28347
827.605	4.18439
830.497	4.46826
833.39	4.47835
836.283	3.65616
839.176	2.3628
842.068	1.69802
844.961	1.80395
847.854	4.30419
850.746	2.13575
853.639	3.87402
856.532	1.32127
859.424	2.95341
862.317	3.53598
865.21	5.24184
868.103	3.60701
870.995	4.84036
873.888	3.22309
876.781	2.51876
879.673	4.54992
882.566	4.18767
885.459	4.61676
888.351	0.743305
891.244	0.252674
894.137	2.5853
897.03	5.33702
899.922	3.11854
902.815	2.27073
905.708	2.21203
908.6	4.31979
911.493	3.26398
914.386	4.7077
917.278	1.47596
920.171	4.55575
923.064	3.06814
925.957	1.28534
928.849	2.97795
931.742	5.88512
934.635	4.79954
937.527	1.45678
940.42	6.52972
943.313	3.47729
946.205	2.16111
949.098	3.48379
951.991	3.44266
954.884	4.84832
957.776	1.80191
960.669	2.65687
963.562	2.94342
966.454	1.47061
969.347	2.15409
972.24	6.04444
975.132	4.45247
978.025	1.68147
980.918	2.58701
983.811	4.57084
986.703	3.33417
989.596	2.53109
992.489	1.75344
995.381	0.619099
998.274	3.27623
1001.17	6.43503
1004.06	2.79877
1006.95	0.291523
1009.85	2.25848
1012.74	0.508022
1015.63	2.63023
1018.52	0.943512
1021.42	1.1025
1024.31	6.59824
1027.2	1.80447
1030.09	4.10554
1032.99	4.84837
1035.88	5.94834
1038.77	15.3938
1041.66	22.274
1044.56	23.6115
1047.45	33.7402
1050.34	18.8106
1053.23	7.13016
1056.13	6.73764
1059.02	3.80883
1061.91	3.05177
1064.81	4.78606
1067.7	2.10742
1070.59	4.7202
1073.48	2.16635
1076.38	3.38702
1079.27	5.49741
1082.16	1.91684
1085.06	1.57613
1087.95	5.61406
1090.84	3.27629
1093.73	7.79108
1096.63	1.95621
1099.52	2.54212
1102.41	4.73891
1105.3	3.23752
1108.2	4.7716
1111.09	3.46243
1113.98	5.50884
1116.88	7.02623
1119.77	0.541325
1122.66	5.12164
1125.55	4.26677
1128.45	0.191742
1131.34	4.01065
1134.23	6.48447
1137.12	9.19066
1140.02	1.6922
1142.91	3.89317
1145.8	3.25204
1148.69	2.93233
1151.59	1.57178
1154.48	0.486668
1157.37	0.715755
1160.27	4.92118
1163.16	3.25654
1166.05	0.014759
1168.94	3.39275
1171.84	1.61541
1174.73	4.84292
1177.62	5.34638
1180.51	0.789993
1183.41	3.79329
1186.3	2.1728
1189.19	2.19024
1192.09	3.31662
1194.98	5.54707
1197.87	3.71532
1200.76	4.27988
1203.66	2.53584
1206.55	5.0068
1209.44	4.41011
1212.33	1.76949
1215.23	0.462238
1218.12	5.66885
1221.01	1.57909
1223.9	1.85629
1226.8	4.37489
1229.69	7.10657
1232.58	1.80901
1235.47	4.83124
1238.37	0.532856
1241.26	3.28619
1244.15	2.69949
1247.05	4.06655
1249.94	3.33796
1252.83	6.44912
1255.72	5.07463
1258.62	5.47574
1261.51	2.72899
1264.4	0.445671
1267.3	0.211761
1270.19	4.28307
1273.08	6.01733
1275.97	1.14244
1278.87	1.31553
1281.76	0.992325
1284.65	2.47252
