Measurement: Raman, 532 nm, unoriented, Raman Data Processed
Mineral: Lillianite
Rruff sample: R110141
Ideal chemistry: Pb^2+^_3-2x_Ag^1+^_x_Bi^3+^_2+x_S^2-^_6_
Locality: Pedro claim, King County, Washington, USA
Source: Rob Lavinsky
Description: Elongated prismatic silver gray metallic crystal, with severe exterior corrosion associated with aikinite, galena, neyite, and gustavite
Measured chemistry: Pb_1.82_Ag_0.62_Cu_0.04_(Bi_2.66_Sb_0.01_)_âˆ‘=2.67_S_6_
Raman shift (cm-1)	intensity
154.132	0
157.024	2.73355
159.917	1.54837
162.81	18.0764
165.702	34.9239
168.595	49.8094
171.488	55.0385
174.381	66.6195
177.273	98.7093
180.166	115.104
183.059	132.982
185.951	138.32
188.844	138.521
191.737	136.54
194.629	140.935
197.522	144.226
200.415	149.245
203.308	150.501
206.2	149.242
209.093	151.054
211.986	143.872
214.878	144.282
217.771	136.056
220.664	130.698
223.556	126.011
226.449	125.316
229.342	119.196
232.234	117.41
235.127	108.695
238.02	107.254
240.913	105.151
243.805	99.3914
246.698	99.2831
249.591	94.3785
252.483	96.3646
255.376	90.2809
258.269	86.5958
261.161	83.268
264.054	79.63
266.947	77.1985
269.84	71.703
272.732	68.7781
275.625	67.0247
278.518	60.9613
281.41	56.5846
284.303	45.6962
287.196	38.6111
290.089	29.3772
292.981	20.6443
295.874	14.9694
298.767	11.7491
301.659	6.0478
304.552	2.61098
307.445	0.930061
310.337	0.413231
313.23	0.617928
316.123	3.36659
319.015	0.515175
321.908	5.48373
324.801	1.72784
327.694	0.362175
330.586	1.23785
333.479	1.3009
336.372	1.38892
339.264	1.29137
342.157	0.968025
345.05	1.56746
347.942	7.00533
350.835	4.1395
353.728	6.54166
356.621	6.71059
359.513	8.24053
362.406	8.13175
365.299	8.68253
368.191	10.2972
371.084	11.3867
373.977	10.161
376.87	11.521
379.762	11.3542
382.655	9.54234
385.548	9.43081
388.44	12.3374
391.333	6.85347
394.226	9.76775
397.118	8.62029
400.011	6.93774
402.904	8.63713
405.796	6.7995
408.689	7.56108
411.582	8.29223
414.475	6.63667
417.367	5.81571
420.26	6.44691
423.153	6.48793
426.045	4.45203
428.938	5.18247
431.831	4.16879
434.724	5.52081
437.616	1.36153
440.509	3.9323
443.402	4.83994
446.294	5.22831
449.187	4.43323
452.08	5.49678
454.972	3.15746
457.865	5.32641
460.758	5.99318
463.651	3.08703
466.543	5.95441
469.436	4.3323
472.329	1.85854
475.221	2.76025
478.114	2.93776
481.007	0.141621
483.899	2.00628
486.792	1.83556
489.685	2.8759
492.577	4.97053
495.47	1.40358
498.363	1.21241
501.256	3.28498
504.148	2.95693
507.041	0.4711
509.934	1.53508
512.826	1.4403
515.719	2.40728
518.612	0.58136
521.505	1.25999
524.397	1.19283
527.29	1.66027
530.183	1.74063
533.075	0.177963
535.968	0.445694
538.861	2.43145
541.753	0.853806
544.646	0.30201
547.539	2.23471
550.432	2.2954
553.324	2.55779
556.217	0.71693
559.11	2.14183
562.002	1.72335
564.895	2.42782
567.788	1.77486
570.68	1.71443
573.573	0.909016
576.466	2.4744
579.359	1.77042
582.251	1.67328
585.144	3.59114
588.037	0.142963
590.929	0.450005
593.822	0.446682
596.715	2.38985
599.607	0.556248
602.5	1.49514
605.393	2.50721
608.285	0.85651
611.178	3.06043
614.071	2.38751
616.964	3.51294
619.856	0.134691
622.749	2.11147
625.642	2.11132
628.534	3.0081
631.427	2.0407
634.32	2.05989
637.212	0.872049
640.105	3.79855
642.998	4.22112
645.891	1.6897
648.783	3.49116
651.676	0.128456
654.569	0.051743
657.461	1.96989
660.354	4.2893
663.247	3.71023
666.139	2.45218
669.032	3.01249
671.925	1.57775
674.818	4.38219
677.71	0.832714
680.603	1.38027
683.496	3.07201
686.388	0.209106
689.281	3.95969
692.174	3.34908
695.067	3.38497
697.959	2.20297
700.852	1.70635
703.745	1.8395
706.637	1.74122
709.53	2.25877
712.423	0.765093
715.315	1.63449
718.208	0.87969
721.101	2.84406
723.994	3.79445
726.886	0.470835
729.779	2.44195
732.672	1.9341
735.564	2.054
738.457	0.146523
741.35	2.04509
744.242	1.65175
747.135	3.26023
750.028	1.9969
752.92	1.64169
755.813	2.54823
758.706	0.365679
761.599	0.730558
764.491	3.29172
767.384	0.41486
770.277	2.27624
773.169	1.83287
776.062	1.23044
778.955	2.50074
781.847	1.95257
784.74	2.60753
787.633	1.28706
790.526	0.063704
793.418	2.30095
796.311	2.08552
799.204	0.090076
802.096	1.34336
804.989	0.780228
807.882	2.73493
810.774	0.089539
813.667	0.978777
816.56	2.84169
819.453	2.34932
822.345	2.89735
825.238	2.4699
828.131	2.46719
831.023	1.8214
833.916	2.51401
836.809	1.34269
839.702	1.64477
842.594	1.21945
845.487	1.4927
848.38	1.09381
851.272	2.89812
854.165	0.518799
857.058	1.55428
859.95	1.98697
862.843	0.349676
865.736	0.742979
868.629	0.916754
871.521	1.24216
874.414	1.18254
877.307	0.008106
880.199	0.669691
883.092	2.2183
885.985	2.30493
888.877	0.427917
891.77	1.60698
894.663	1.00613
897.556	0.937977
900.448	0.550079
903.341	2.98161
906.234	1.43861
909.126	2.73614
912.019	1.83022
914.912	1.14963
917.804	1.35879
920.697	2.52801
923.59	1.98734
926.482	2.14835
929.375	1.24976
932.268	1.61266
935.161	2.86918
938.053	2.0804
940.946	1.34404
943.839	2.59693
946.731	1.40591
949.624	1.10934
952.517	2.57797
955.409	1.18974
958.302	1.22494
961.195	2.08267
964.088	0.358736
966.98	0.655695
969.873	1.78075
972.766	2.72995
975.658	0.842419
978.551	3.73828
981.444	0.930944
984.337	1.96686
987.229	0.723722
990.122	0.72551
993.015	0.627899
995.907	0.218285
998.8	0.948898
1001.69	2.87916
1004.59	0.980892
1007.48	1.56421
1010.37	3.87035
1013.26	1.85155
1016.16	1.71979
1019.05	2.0114
1021.94	1.42677
1024.83	0.221071
1027.73	1.56088
1030.62	3.17238
1033.51	1.76705
1036.4	1.44189
1039.3	1.42145
1042.19	2.13225
1045.08	1.07857
1047.98	1.78584
1050.87	0.759483
1053.76	1.55302
1056.65	0.14731
1059.55	0.81325
1062.44	1.87803
1065.33	2.04775
1068.22	2.15049
1071.12	2.42523
1074.01	1.291
1076.9	1.38012
1079.8	2.24968
1082.69	1.374
1085.58	0.805546
1088.47	2.40178
1091.37	1.85972
1094.26	1.72706
1097.15	2.4027
1100.04	0.185139
1102.94	0.256699
1105.83	0.059883
1108.72	1.79259
1111.62	2.53095
1114.51	1.12541
1117.4	2.34429
1120.29	1.29133
1123.19	0.735641
1126.08	0.360758
1128.97	0.878819
1131.86	2.68651
1134.76	1.39346
1137.65	1.92455
1140.54	0.622828
1143.43	3.49012
1146.33	1.88313
1149.22	2.2081
1152.11	1.93915
1155.01	1.48275
1157.9	1.9743
1160.79	1.52603
1163.68	1.85957
1166.58	1.12972
1169.47	0.70532
1172.36	0.329977
1175.26	2.55391
1178.15	1.09904
1181.04	1.77467
1183.93	1.43854
1186.83	0.996639
1189.72	1.82057
1192.61	1.77116
1195.5	3.64214
1198.4	2.61146
1201.29	3.09341
1204.18	2.50014
1207.07	1.2774
1209.97	2.85148
1212.86	0.109678
1215.75	2.63943
1218.64	1.06879
1221.54	4.29423
1224.43	1.27853
1227.32	3.09917
1230.22	0.477425
1233.11	2.25687
1236	3.49538
1238.89	1.49137
1241.79	2.41245
1244.68	2.8083
1247.57	2.14836
1250.46	0.621725
1253.36	1.41996
1256.25	2.02908
1259.14	3.70576
1262.04	1.19155
1264.93	2.048
1267.82	2.86354
1270.71	3.70011
1273.61	2.27655
1276.5	0.266174
1279.39	1.30603
1282.29	1.30156
1285.18	2.02697
1288.07	1.25191
1290.96	1.94768
1293.86	2.31094
1296.75	0.883354
1299.64	1.71622
1302.53	0.026098
