Measurement: Raman, 780 nm, unoriented, Raman Data Processed
Mineral: Lillianite
Rruff sample: R110141
Ideal chemistry: Pb^2+^_3-2x_Ag^1+^_x_Bi^3+^_2+x_S^2-^_6_
Locality: Pedro claim, King County, Washington, USA
Source: Rob Lavinsky
Description: Elongated prismatic silver gray metallic crystal, with severe exterior corrosion associated with aikinite, galena, neyite, and gustavite
Measured chemistry: Pb_1.82_Ag_0.62_Cu_0.04_(Bi_2.66_Sb_0.01_)_âˆ‘=2.67_S_6_
Raman shift (cm-1)	intensity
144.636	0
147.529	0.508102
150.422	2.5461
153.315	1.99007
156.207	0.043655
159.1	1.88479
161.993	0.024193
164.885	2.77751
167.778	0.186192
170.671	2.13681
173.563	3.55547
176.456	0.282627
179.349	4.22292
182.242	3.09775
185.134	3.34688
188.027	5.55666
190.92	4.98835
193.812	7.14896
196.705	6.11207
199.598	8.19217
202.49	7.90855
205.383	8.0483
208.276	9.04056
211.168	8.6769
214.061	10.5828
216.954	10.0994
219.847	8.08406
222.739	8.9784
225.632	8.30926
228.525	8.65573
231.417	10.3571
234.31	11.22
237.203	9.84539
240.095	10.8678
242.988	10.635
245.881	11.9385
248.774	13.1345
251.666	13.5499
254.559	13.8671
257.452	14.4436
260.344	16.2457
263.237	16.1397
266.13	15.1874
269.022	16.9437
271.915	15.8319
274.808	15.5594
277.701	17.6839
280.593	17.0604
283.486	15.1141
286.379	14.1628
289.271	11.5242
292.164	9.12295
295.057	6.13437
297.95	6.40076
300.842	3.55099
303.735	2.76534
306.628	0.966578
309.52	0.589043
312.413	0.259539
315.306	0.684603
318.198	0.546482
321.091	0.907827
323.984	1.44699
326.877	0.608173
329.769	0.401321
332.662	0.014755
335.555	0.665587
338.447	1.15279
341.34	0.301165
344.233	0.673717
347.125	1.32841
350.018	2.35778
352.911	0.26564
355.803	2.15488
358.696	3.40372
361.589	2.41051
364.482	1.53409
367.374	2.71331
370.267	1.84119
373.16	3.29691
376.052	4.25182
378.945	3.17327
381.838	3.11364
384.731	2.30137
387.623	2.81025
390.516	2.38501
393.409	2.48523
396.301	0.777097
399.194	2.54284
402.087	2.22003
404.979	0.321765
407.872	1.61985
410.765	0.983516
413.658	0.827268
416.55	0.668147
419.443	1.83996
422.336	1.01175
425.228	1.62903
428.121	1.79216
431.014	0.532146
433.906	2.2847
436.799	0.464837
439.692	1.19298
442.584	1.79831
445.477	3.21944
448.37	1.66923
451.263	0.76812
454.155	0.854362
457.048	2.13372
459.941	2.50923
462.833	0.196522
465.726	2.92903
468.619	2.45359
471.512	0.466542
474.404	0.487892
477.297	0.719085
480.19	0.788116
483.082	0.643492
485.975	1.70034
488.868	0.60323
491.76	0.791465
494.653	1.13121
497.546	1.55923
500.438	1.9479
503.331	2.98176
506.224	0.738686
509.117	1.4903
512.009	1.00236
514.902	2.10799
517.795	1.56206
520.687	0.107902
523.58	0.519353
526.473	0.931671
529.365	1.38096
532.258	0.000441
535.151	0.209657
538.044	1.50371
540.936	0.817061
543.829	0.486929
546.722	1.45158
549.614	1.86565
552.507	1.64106
555.4	1.09389
558.293	1.79673
561.185	1.97539
564.078	1.68502
566.971	0.552061
569.863	1.20108
572.756	0.827808
575.649	1.47817
578.541	2.23928
581.434	1.03006
584.327	1.66683
587.22	0.649093
590.112	0.734809
593.005	1.04897
595.898	0.705568
598.79	0.445314
601.683	0.773076
604.576	0.921538
607.468	1.33726
610.361	3.34598
613.254	1.92724
616.146	1.81005
619.039	0.97188
621.932	1.46396
624.825	1.09287
627.717	1.47569
630.61	1.16249
633.503	2.29885
636.395	1.88291
639.288	1.16519
642.181	1.62249
645.073	1.40663
647.966	0.123077
650.859	0.001119
653.752	2.20885
656.644	1.42354
659.537	1.81782
662.43	0.987055
665.322	1.33948
668.215	0.690991
671.108	1.4601
674	0.882682
676.893	1.55511
679.786	1.67806
682.679	0.972769
685.571	1.9933
688.464	2.04602
691.357	2.18928
694.249	1.63357
697.142	1.8666
700.035	0.3723
702.928	1.41098
705.82	1.27485
708.713	0.814522
711.606	0.464209
714.498	0.846002
717.391	1.67789
720.284	1.80198
723.176	0.530584
726.069	2.1883
728.962	1.66528
731.855	1.17341
734.747	0.087331
737.64	0.89395
740.533	0.314706
743.425	1.68184
746.318	1.52103
749.211	0.934776
752.103	1.63626
754.996	0.480996
757.889	0.370803
760.782	2.18429
763.674	0.009186
766.567	2.28241
769.46	0.792804
772.352	0.193204
775.245	1.89597
778.138	0.261464
781.03	1.89489
783.923	0.422082
786.816	0.387828
789.708	0.980134
792.601	0.930053
795.494	0.31133
798.387	0.921915
801.279	1.89902
804.172	1.64604
807.065	1.08711
809.957	0.89239
812.85	0.816495
815.743	0.068466
818.635	0.708834
821.528	0.402251
824.421	1.30168
827.314	1.64981
830.206	0.446941
833.099	1.48773
835.992	2.24554
838.884	0.992726
841.777	1.50953
844.67	1.96365
847.562	1.74486
850.455	2.35559
853.348	0.641497
856.241	0.911268
859.133	0.470211
862.026	0.683062
864.919	1.62413
867.811	0.827152
870.704	0.417763
873.597	1.35614
876.49	1.25483
879.382	1.36205
882.275	0.560242
885.168	1.25888
888.06	0.68581
890.953	0.40857
893.846	0.683603
896.738	2.1163
899.631	1.17862
902.524	1.66819
905.417	0.144135
908.309	0.47413
911.202	0.881411
914.095	1.53969
916.987	0.553354
919.88	0.606924
922.773	1.18507
925.665	1.20175
928.558	1.8784
931.451	0.312841
934.343	0.984086
937.236	2.50814
940.129	1.38263
943.022	0.297852
945.914	0.457983
948.807	0.807623
951.7	1.38182
954.592	1.48186
957.485	1.50164
960.378	2.17966
963.27	0.695926
966.163	0.607281
969.056	1.40674
971.949	0.12521
974.841	0.602028
977.734	1.16366
980.627	1.57714
983.519	0.426904
986.412	0.397344
989.305	0.809983
992.197	2.52198
995.09	0.959694
997.983	1.24678
1000.88	1.91614
1003.77	1.13555
1006.66	0.987955
1009.55	1.26992
1012.45	1.07748
1015.34	0.000365
1018.23	1.11118
1021.12	1.67259
1024.02	1.7215
1026.91	1.73268
1029.8	1.03364
1032.69	2.72619
1035.59	2.25383
1038.48	1.77614
1041.37	2.16693
1044.27	1.07459
1047.16	1.57983
1050.05	2.11577
1052.94	0.144755
1055.84	0.986305
1058.73	1.11981
1061.62	2.16299
1064.52	0.94784
1067.41	1.69122
1070.3	0.254124
1073.19	0.944347
1076.09	1.70987
1078.98	0.261704
1081.87	1.03663
1084.76	1.08786
1087.66	0.047343
1090.55	0.940583
1093.44	0.667423
1096.34	2.11442
1099.23	0.635186
1102.12	1.38078
1105.01	1.92544
1107.91	0.922464
1110.8	0.499277
1113.69	0.688431
1116.58	0.611031
1119.48	1.49531
1122.37	1.3238
1125.26	1.63943
1128.15	0.604184
1131.05	1.91416
1133.94	1.18416
1136.83	1.5379
1139.72	1.36744
1142.62	1.47013
1145.51	1.99815
1148.4	1.8309
1151.3	1.69065
1154.19	1.84466
1157.08	0.47748
1159.97	0.21441
1162.87	0.521233
1165.76	0.870688
1168.65	0.361841
1171.55	1.84127
1174.44	1.21
1177.33	0.815076
1180.22	1.593
1183.12	1.39519
1186.01	0.521129
1188.9	0.890076
1191.79	0.128361
1194.69	1.43271
1197.58	0.332721
1200.47	1.86435
1203.37	1.23189
1206.26	2.40262
1209.15	0.983968
1212.04	2.78681
1214.93	0.257355
1217.83	1.84565
1220.72	2.71128
1223.61	1.3352
1226.51	0.856922
1229.4	1.59063
1232.29	2.19808
1235.18	1.39984
1238.08	0.547818
1240.97	1.22507
1243.86	2.04187
1246.76	2.00616
1249.65	0.801055
1252.54	1.08482
1255.43	1.14302
1258.33	0.910083
1261.22	0.314177
1264.11	0.582983
1267	1.72974
1269.9	1.1126
1272.79	1.00938
1275.68	0.060918
1278.58	0.991357
1281.47	1.79046
1284.36	0.782615
