Measurement: Raman, 780 nm, unoriented, Raman Data Processed
Mineral: Linarite
Rruff sample: R060472
Ideal chemistry: Pb^2+^Cu^2+^S^6+^O_4_(OH)_2_
Locality: Tiger, Arizona, USA
Source: Michael Scott
Description: Blue tabular crystals
Measured chemistry: Pb_1.00_Cu_1.00_(S_1.00_O_4_)(OH)_2_
Raman shift (cm-1)	intensity
159.066	0
161.959	6.11252
164.851	0.095036
167.744	7.11823
170.637	5.19801
173.53	7.94505
176.422	4.31581
179.315	11.0487
182.208	8.77174
185.1	5.89944
187.993	5.99366
190.886	11.1011
193.778	1.92979
196.671	2.20008
199.564	9.61187
202.457	6.38532
205.349	0.615843
208.242	5.57654
211.135	7.20786
214.027	7.81047
216.92	5.61834
219.813	3.76895
222.705	7.0052
225.598	6.63345
228.491	8.37462
231.383	7.39307
234.276	1.29811
237.169	5.92083
240.061	4.71792
242.954	10.6732
245.847	7.62713
248.74	8.3165
251.632	5.46897
254.525	6.29151
257.418	1.38406
260.31	3.57557
263.203	6.5124
266.096	3.98411
268.988	4.44154
271.881	8.38666
274.774	1.10778
277.667	2.93146
280.559	8.70974
283.452	2.21795
286.345	0.663918
289.237	0.601917
292.13	1.67817
295.023	2.63585
297.916	2.45333
300.808	8.23075
303.701	1.8116
306.594	9.35398
309.486	9.12553
312.379	1.79398
315.272	3.78395
318.164	6.79932
321.057	6.12057
323.95	0.791927
326.842	7.01358
329.735	8.52007
332.628	1.51189
335.521	10.5282
338.413	3.04982
341.306	8.34722
344.199	4.30054
347.091	9.90454
349.984	8.19337
352.877	11.7894
355.769	7.86461
358.662	7.33493
361.555	9.54632
364.447	8.45759
367.34	6.81698
370.233	6.96429
373.126	2.63329
376.018	4.9764
378.911	7.79959
381.804	1.30539
384.696	11.283
387.589	10.7105
390.482	13.1847
393.375	9.08464
396.267	0.703616
399.16	3.69355
402.053	3.3127
404.945	7.84159
407.838	8.33839
410.731	4.78712
413.623	8.1296
416.516	4.4234
419.409	7.14268
422.301	0.27046
425.194	1.90029
428.087	8.02261
430.98	14.2285
433.872	20.9988
436.765	11.2944
439.658	10.4471
442.55	7.109
445.443	9.75723
448.336	4.67747
451.228	1.96381
454.121	9.23887
457.014	7.45085
459.907	4.23625
462.799	4.40415
465.692	4.8035
468.585	6.37545
471.477	0.681768
474.37	0.16688
477.263	4.72139
480.156	0.766886
483.048	3.60895
485.941	1.67699
488.834	2.68782
491.726	4.97132
494.619	2.11248
497.512	4.4574
500.404	9.84367
503.297	11.2781
506.19	9.68136
509.082	13.5434
511.975	4.01598
514.868	7.46411
517.761	3.72599
520.653	2.64691
523.546	10.0504
526.439	4.91315
529.331	6.85416
532.224	8.49608
535.117	3.30973
538.01	4.38685
540.902	5.68297
543.795	7.79541
546.688	9.28118
549.58	9.57971
552.473	7.14648
555.366	4.56888
558.258	3.51422
561.151	4.39358
564.044	13.3497
566.936	9.47974
569.829	7.87856
572.722	9.45056
575.615	8.73701
578.507	9.10676
581.4	1.33109
584.293	3.72689
587.185	5.7607
590.078	14.2978
592.971	10.6859
595.863	9.24845
598.756	11.5502
601.649	7.71319
604.542	10.0017
607.434	16.6195
610.327	13.6143
613.22	13.0565
616.112	11.3425
619.005	9.49789
621.898	15.4086
624.79	17.1107
627.683	16.7236
630.576	20.5627
633.468	9.87134
636.361	3.58035
639.254	9.44758
642.146	12.16
645.039	6.03197
647.932	4.88097
650.825	3.64415
653.717	2.93353
656.61	1.10193
659.503	4.50995
662.395	1.10064
665.288	2.35332
668.181	10.4166
671.073	4.86431
673.966	1.89286
676.859	5.67342
679.752	2.54401
682.644	4.88856
685.537	0.87317
688.43	4.23241
691.322	0.45222
694.215	1.28197
697.108	2.39317
700	0.85415
702.893	5.49561
705.786	8.46526
708.679	10.8716
711.571	7.98955
714.464	6.04145
717.357	7.19554
720.249	4.87293
723.142	0.424262
726.035	3.26889
728.928	6.72537
731.82	2.68315
734.713	6.90519
737.606	5.98824
740.498	2.83669
743.391	8.76801
746.284	6.46249
749.176	4.60229
752.069	1.9358
754.962	2.52468
757.855	4.19312
760.747	2.31683
763.64	6.50764
766.533	1.79923
769.425	9.92328
772.318	5.32979
775.211	2.87853
778.103	0.586058
780.996	10.7188
783.889	8.56688
786.782	2.03513
789.674	9.18588
792.567	0.30167
795.46	8.26107
798.352	12.2615
801.245	11.4219
804.138	9.55449
807.03	14.8015
809.923	1.91262
812.816	8.14895
815.708	5.97249
818.601	6.46029
821.494	4.32201
824.386	6.57082
827.279	10.7402
830.172	1.97723
833.065	6.29917
835.957	6.91648
838.85	8.99219
841.743	6.86586
844.635	8.89435
847.528	7.31125
850.421	4.63405
853.313	6.93165
856.206	6.30792
859.099	14.5483
861.992	5.89165
864.884	4.59693
867.777	1.69216
870.67	2.7004
873.562	5.17766
876.455	8.78682
879.348	8.46261
882.24	1.22215
885.133	0.656157
888.026	9.46486
890.919	2.58086
893.811	3.78762
896.704	4.4942
899.597	3.79362
902.489	0.248274
905.382	10.6736
908.275	2.29253
911.168	6.85989
914.06	4.10843
916.953	7.06079
919.846	6.65255
922.738	0.551644
925.631	9.56667
928.524	4.067
931.416	5.73149
934.309	0.33706
937.202	3.01378
940.095	1.57027
942.987	8.90752
945.88	4.87355
948.773	16.1947
951.665	22.4993
954.558	27.8396
957.451	35.7886
960.343	49.2387
963.236	56.8066
966.129	64.5155
969.021	40.5738
971.914	25.9101
974.807	11.0633
977.699	11.134
980.592	4.75459
983.485	0.482239
986.378	2.74676
989.27	2.48003
992.163	3.99097
995.056	1.90019
997.948	7.21872
1000.84	3.03302
1003.73	5.30892
1006.63	2.6269
1009.52	10.2624
1012.41	0.395392
1015.3	6.75315
1018.2	8.29985
1021.09	8.95221
1023.98	9.98109
1026.88	9.24835
1029.77	4.99954
1032.66	0.093291
1035.55	10.8768
1038.45	2.35514
1041.34	10.7183
1044.23	4.97443
1047.12	10.1631
1050.02	9.30487
1052.91	2.093
1055.8	0.592041
1058.69	9.06711
1061.59	2.5244
1064.48	8.56798
1067.37	5.77234
1070.27	0.187672
1073.16	9.66746
1076.05	1.7974
1078.94	2.96996
1081.84	2.83502
1084.73	3.45386
1087.62	1.42743
1090.52	6.027
1093.41	2.7932
1096.3	1.64227
1099.19	5.20514
1102.09	6.15445
1104.98	11.6968
1107.87	0.299523
1110.76	1.09068
1113.66	10.7883
1116.55	8.26327
1119.44	4.81768
1122.33	8.68143
1125.23	10.5456
1128.12	9.70719
1131.01	8.88079
1133.9	10.1727
1136.8	13.6514
1139.69	7.59686
1142.58	3.15761
1145.48	0.241985
1148.37	9.46433
1151.26	0.203646
1154.15	8.84444
1157.05	9.00024
1159.94	4.36302
1162.83	7.08578
1165.72	7.73798
1168.62	7.64402
1171.51	8.77365
1174.4	0.704577
1177.3	12.4653
1180.19	5.47001
1183.08	10.083
1185.97	11.9012
1188.87	2.68651
1191.76	9.2719
1194.65	9.43695
1197.55	1.10459
1200.44	10.3032
1203.33	2.38561
1206.22	13.6126
1209.12	10.8487
1212.01	4.33819
1214.9	2.85593
1217.79	9.18819
1220.69	8.23585
1223.58	4.50472
1226.47	1.406
1229.36	9.63682
1232.26	0.696822
1235.15	7.62758
1238.04	7.06209
1240.93	4.43949
1243.83	12.2158
1246.72	9.28394
1249.61	6.44431
1252.51	12.8415
1255.4	7.1683
1258.29	11.0426
1261.18	9.92615
1264.08	2.56562
1266.97	6.7387
1269.86	10.2012
1272.76	11.3111
1275.65	4.40322
1278.54	8.18888
1281.43	6.39885
1284.33	0.031986
