Measurement: Raman, 532 nm, unoriented, Raman Data Processed
Mineral: Lithiophorite
Rruff sample: R070083
Ideal chemistry: (Al,Li)Mn^4+^O_2_(OH)_2_
Locality: Sausalito Road Quarry, Sausalito, Marine County, California, USA
Source: James Shigley
Description: Aggregates of shiny black spheres
Raman shift (cm-1)	intensity
158.377	0
161.751	7.73603
165.126	18.7643
168.501	31.6356
171.876	19.1952
175.251	30.0622
178.625	48.7821
182	26.6793
185.375	40.172
188.75	41.5166
192.125	34.6037
195.5	24.1288
198.874	31.4348
202.249	36.6123
205.624	15.5924
208.999	28.9504
212.374	18.8789
215.749	17.3757
219.123	29.0441
222.498	10.653
225.873	33.2297
229.248	6.50345
232.623	22.465
235.997	27.4117
239.372	9.94555
242.747	44.0617
246.122	37.8652
249.497	0.796066
252.871	32.4753
256.246	6.51462
259.621	22.3845
262.996	26.3269
266.371	18.845
269.746	19.6788
273.12	13.5329
276.495	2.14463
279.87	13.6714
283.245	0.214455
286.62	32.8234
289.995	13.4228
293.369	4.78382
296.744	23.5364
300.119	33.6119
303.494	6.39403
306.869	51.0145
310.243	5.6502
313.618	22.5245
316.993	11.4265
320.368	28.2815
323.743	26.7329
327.118	1.12901
330.492	21.5616
333.867	35.5786
337.242	15.0306
340.617	14.5899
343.992	47.6594
347.366	30.5873
350.741	20.995
354.116	34.8581
357.491	33.0508
360.866	29.9539
364.24	35.6095
367.615	7.68482
370.99	7.39909
374.365	16.8676
377.74	15.7836
381.115	11.9903
384.489	22.977
387.864	10.9472
391.239	27.3605
394.614	42.8088
397.989	1.8181
401.363	35.5813
404.738	2.62434
408.113	34.2024
411.488	21.8159
414.863	14.6626
418.238	19.6023
421.612	7.82076
424.987	23.4766
428.362	43.9003
431.737	30.6239
435.112	45.1568
438.486	31.5577
441.861	41.3651
445.236	19.273
448.611	16.7797
451.986	19.2944
455.361	34.9888
458.735	39.2534
462.11	20.0066
465.485	11.2464
468.86	32.1754
472.235	18.9179
475.61	0.197128
478.984	32.2653
482.359	53.6327
485.734	16.2035
489.109	45.3416
492.484	41.8829
495.858	6.78673
499.233	4.04739
502.608	13.2707
505.983	12.2719
509.358	22.0649
512.732	20.0338
516.107	20.4979
519.482	8.86695
522.857	19.6781
526.232	18.2181
529.607	19.9092
532.981	31.0808
536.356	28.5942
539.731	2.85677
543.106	13.8895
546.481	5.70819
549.856	17.5613
553.23	5.40027
556.605	8.81453
559.98	21.669
563.355	4.95812
566.73	10.3844
570.104	0.660751
573.479	22.6065
576.854	7.45837
580.229	11.5055
583.604	4.02698
586.979	29.5567
590.353	25.9805
593.728	17.11
597.103	21.5621
600.478	27.8306
603.852	25.1905
607.227	7.3302
610.602	37.0757
613.977	27.9988
617.352	36.7435
620.727	54.5883
624.101	53.5486
627.476	52.0211
630.851	50.2186
634.226	52.2755
637.601	55.8285
640.976	64.0452
644.35	51.038
647.725	70.4878
651.1	60.639
654.475	41.873
657.85	43.9429
661.224	44.4168
664.599	28.4288
667.974	17.4245
671.349	44.0819
674.724	25.9847
678.098	27.7565
681.473	32.7991
684.848	32.9789
688.223	9.19478
691.598	11.331
694.973	22.7288
698.347	22.7357
701.722	34.4808
705.097	10.3334
708.472	7.12215
711.847	23.3818
715.221	23.5257
718.596	30.2569
721.971	8.8918
725.346	29.2029
728.721	19.8448
732.096	38.7382
735.471	6.9845
738.845	13.0588
742.22	1.64552
745.595	0.159561
748.97	43.0809
752.345	11.9173
755.719	25.1018
759.094	20.1283
762.469	28.2852
765.844	27.2956
769.219	24.6245
772.593	5.64344
775.968	17.3459
779.343	3.68734
782.718	35.865
786.093	3.95617
789.467	48.028
792.842	31.1562
796.217	17.7579
799.592	18.8787
802.967	9.88542
806.342	17.7811
809.716	2.24821
813.091	18.8107
816.466	1.91024
819.841	15.2402
823.216	34.4417
826.591	14.8927
829.965	1.1264
833.34	26.4481
836.715	16.6903
840.09	42.3561
843.465	42.7143
846.839	25.2479
850.214	29.6826
853.589	19.6283
856.964	26.7254
860.339	10.586
863.713	18.5994
867.088	29.683
870.463	23.4728
873.838	30.6502
877.213	14.9601
880.588	56.6347
883.962	30.4468
887.337	15.4088
890.712	18.9169
894.087	24.0875
897.462	18.9673
900.837	11.0036
904.211	24.5016
907.586	32.9066
910.961	47.4702
914.336	5.69036
917.711	13.3115
921.085	38.2556
924.46	32.8568
927.835	2.59995
931.21	41.1484
934.585	24.552
937.96	35.8049
941.334	24.0433
944.709	35.6565
948.084	6.07719
951.459	15.5844
954.834	36.5192
958.208	35.7217
961.583	24.3949
964.958	23.2849
968.333	15.9163
971.708	23.9773
975.082	11.1369
978.457	13.7674
981.832	35.2997
985.207	18.8458
988.582	8.52242
991.957	5.93006
995.331	9.14845
998.706	22.3745
1002.08	31.7356
1005.46	36.9779
1008.83	3.40246
1012.21	3.41624
1015.58	17.4891
1018.96	16.897
1022.33	7.90552
1025.7	25.9684
1029.08	8.18108
1032.45	16.8627
1035.83	25.7475
1039.2	25.0307
1042.58	14.8521
1045.95	26.4425
1049.33	31.8386
1052.7	34.7114
1056.08	14.9531
1059.45	9.1273
1062.83	20.8005
1066.2	8.14391
1069.58	22.0364
1072.95	15.1654
1076.33	37.2418
1079.7	18.4676
1083.08	16.4315
1086.45	44.4522
1089.83	21.1084
1093.2	35.8406
1096.58	28.4514
1099.95	25.2184
1103.33	12.9889
1106.7	40.1784
1110.08	38.0408
1113.45	7.46397
1116.83	19.1184
1120.2	13.5174
1123.57	18.7102
1126.95	15.4319
1130.32	2.47991
1133.7	26.1265
1137.07	5.1909
1140.45	4.59688
1143.82	36.4684
1147.2	26.1535
1150.57	64.0905
1153.95	28.8916
1157.32	21.5817
1160.7	19.6914
1164.07	8.75538
1167.45	33.6885
1170.82	21.6734
1174.2	30.2319
1177.57	21.1584
1180.95	31.2517
1184.32	22.2225
1187.7	32.4417
1191.07	17.9699
1194.45	37.0399
1197.82	29.833
1201.19	13.8364
1204.57	4.94012
1207.94	36.9409
1211.32	2.59535
1214.69	17.9688
1218.07	55.56
1221.44	9.98744
1224.82	40.0888
1228.19	37.8083
1231.57	13.7708
1234.94	6.55204
1238.32	36.9564
1241.69	9.9502
1245.07	23.1861
1248.44	52.3713
1251.82	14.3024
1255.19	29.3135
1258.57	45.2964
1261.94	15.619
1265.32	24.4616
1268.69	28.1073
1272.07	30.0134
1275.44	24.1345
1278.82	23.4598
1282.19	13.6643
1285.57	35.5982
1288.94	40.077
1292.32	25.0797
1295.69	16.9754
1299.07	19.2104
1302.44	25.9778
1305.82	44.8901
1309.19	24.2772
1312.56	32.0733
1315.94	23.7283
