Measurement: Raman, 785 nm, unoriented, Raman Data Processed
Mineral: Lithiophorite
Rruff sample: R070083
Ideal chemistry: (Al,Li)Mn^4+^O_2_(OH)_2_
Locality: Sausalito Road Quarry, Sausalito, Marine County, California, USA
Source: James Shigley
Description: Aggregates of shiny black spheres
Raman shift (cm-1)	intensity
162.29	0
165.183	11.5483
168.075	12.5158
170.968	1.09765
173.861	3.48657
176.754	18.4034
179.646	11.265
182.539	7.1807
185.432	16.995
188.324	15.1463
191.217	10.5124
194.11	0.829826
197.002	21.754
199.895	10.6507
202.788	23.1293
205.68	6.20423
208.573	21.8055
211.466	9.24123
214.359	15.7476
217.251	13.7622
220.144	27.4994
223.037	10.5765
225.929	9.51286
228.822	7.49529
231.715	14.0201
234.607	20.2568
237.5	27.349
240.393	17.3439
243.286	5.87239
246.178	18.4545
249.071	3.22087
251.964	15.7736
254.856	21.2472
257.749	34.7886
260.642	1.82773
263.534	31.7456
266.427	18.0197
269.32	11.1336
272.213	5.76159
275.105	13.6968
277.998	10.7785
280.891	14.1822
283.783	14.2507
286.676	3.7269
289.569	14.0054
292.462	15.0241
295.354	6.66317
298.247	16.6778
301.14	19.0227
304.032	12.9235
306.925	17.5203
309.818	30.5399
312.71	26.8171
315.603	18.3972
318.496	12.8349
321.389	5.79448
324.281	24.5792
327.174	6.58144
330.067	1.52359
332.959	2.33582
335.852	31.4671
338.745	25.8148
341.637	16.1365
344.53	30.0812
347.423	6.3364
350.315	32.9744
353.208	4.85738
356.101	20.7344
358.994	27.0262
361.886	20.8487
364.779	18.3935
367.672	0.299728
370.564	7.42739
373.457	11.4579
376.35	34.2439
379.243	15.8841
382.135	24.7426
385.028	13.7053
387.921	20.2761
390.813	19.5425
393.706	16.274
396.599	25.1633
399.491	16.4892
402.384	13.8851
405.277	27.9163
408.17	8.47354
411.062	10.9996
413.955	3.33446
416.848	26.5679
419.74	1.47143
422.633	6.75775
425.526	4.51191
428.418	16.5543
431.311	38.2543
434.204	14.059
437.096	27.758
439.989	26.5484
442.882	5.06076
445.775	9.32037
448.667	20.4319
451.56	13.9925
454.453	18.0508
457.345	31.2455
460.238	25.5425
463.131	21.3082
466.024	22.2034
468.916	8.18902
471.809	1.06561
474.702	19.5648
477.594	15.7987
480.487	17.8683
483.38	23.9382
486.272	24.6927
489.165	19.7966
492.058	23.5035
494.95	13.1897
497.843	10.917
500.736	1.83662
503.629	0.157791
506.521	3.59543
509.414	22.2768
512.307	13.4515
515.199	20.0819
518.092	6.41876
520.985	7.9989
523.878	3.35463
526.77	3.03087
529.663	8.4921
532.556	10.0532
535.448	23.4576
538.341	4.61092
541.234	6.60991
544.126	7.81236
547.019	11.2472
549.912	9.23856
552.804	5.23172
555.697	1.98225
558.59	16.0179
561.482	18.8169
564.375	3.33394
567.268	2.96068
570.161	14.3104
573.053	16.2646
575.946	6.54272
578.839	13.3647
581.731	25.2588
584.624	11.5642
587.517	17.0698
590.409	15.6896
593.302	13.9574
596.195	32.9651
599.088	16.9496
601.98	7.18869
604.873	21.7038
607.766	21.7147
610.658	28.6578
613.551	21.9078
616.444	33.7142
619.337	28.9274
622.229	48.0464
625.122	35.6326
628.015	37.519
630.907	30.446
633.8	50.7681
636.693	37.0304
639.585	5.1519
642.478	26.2895
645.371	49.245
648.264	48.6431
651.156	51.8787
654.049	33.1899
656.942	15.6771
659.834	36.4525
662.727	31.7729
665.62	11.0521
668.513	20.325
671.405	22.3893
674.298	34.7781
677.191	7.26486
680.083	8.41489
682.976	10.3952
685.869	1.47533
688.761	16.5964
691.654	35.8745
694.547	19.3012
697.439	18.4614
700.332	9.34582
703.225	16.7581
706.118	12.9332
709.01	5.62556
711.903	12.1597
714.796	0.306114
717.688	33.2743
720.581	33.88
723.474	21.8945
726.366	10.1765
729.259	1.72387
732.152	28.452
735.045	20.3123
737.937	7.85698
740.83	0.624252
743.723	33.7677
746.615	30.5531
749.508	24.7188
752.401	16.6809
755.293	14.0179
758.186	10.8544
761.079	5.38714
763.972	20.4551
766.864	13.9733
769.757	20.8741
772.65	34.8967
775.542	0.602127
778.435	15.8204
781.328	31.3237
784.221	33.3457
787.113	12.0649
790.006	19.6106
792.899	11.1263
795.791	30.6164
798.684	14.0116
801.577	13.433
804.469	21.311
807.362	35.8739
810.255	34.3048
813.148	47.07
816.04	16.6263
818.933	16.9385
821.826	22.2399
824.718	29.3577
827.611	8.41274
830.504	4.01395
833.396	9.15807
836.289	36.7692
839.182	25.2684
842.074	10.691
844.967	14.5728
847.86	19.2163
850.753	30.0987
853.645	10.8018
856.538	16.9092
859.431	14.8103
862.323	30.4228
865.216	10.1701
868.109	23.793
871.001	34.3397
873.894	31.1997
876.787	24.332
879.68	0.405434
882.572	17.0237
885.465	18.3465
888.358	37.7896
891.25	13.7177
894.143	17.2645
897.036	12.7178
899.928	12.4403
902.821	19.3449
905.714	12.201
908.607	19.3856
911.499	24.0433
914.392	3.84228
917.285	13.7856
920.177	23.9876
923.07	11.7883
925.963	12.8912
928.856	6.16312
931.748	6.77027
934.641	2.34609
937.534	11.3278
940.426	6.95159
943.319	7.22486
946.212	16.6634
949.104	1.62804
951.997	8.18844
954.89	4.90201
957.783	2.82349
960.675	14.7577
963.568	1.63747
966.461	17.4892
969.353	27.4462
972.246	17.2184
975.139	8.41013
978.031	7.33606
980.924	9.99261
983.817	10.4972
986.71	10.3075
989.602	20.3094
992.495	21.8505
995.388	8.91836
998.28	4.2303
1001.17	21.81
1004.07	23.4647
1006.96	19.8184
1009.85	2.30858
1012.74	26.5105
1015.64	12.9569
1018.53	18.4772
1021.42	15.5431
1024.32	22.4192
1027.21	27.3196
1030.1	23.8741
1032.99	17.3917
1035.88	1.82114
1038.78	31.2332
1041.67	30.6378
1044.56	25.7839
1047.46	8.05762
1050.35	14.4472
1053.24	18.6929
1056.13	20.1159
1059.03	11.5017
1061.92	18.2528
1064.81	27.7173
1067.7	17.6493
1070.6	13.4879
1073.49	10.0608
1076.38	29.4057
1079.28	26.0302
1082.17	38.7902
1085.06	8.91174
1087.95	39.4744
1090.85	8.3513
1093.74	18.36
1096.63	7.11598
1099.53	22.4694
1102.42	16.2497
1105.31	42.4998
1108.2	18.9692
1111.1	37.7985
1113.99	1.8116
1116.88	32.9209
1119.77	36.6211
1122.67	12.2945
1125.56	17.2316
1128.45	39.7554
1131.34	11.1831
1134.24	19.8771
1137.13	32.4246
1140.02	19.7637
1142.91	34.0639
1145.81	10.4882
1148.7	50.8363
1151.59	8.25851
1154.49	18.9316
1157.38	35.5189
1160.27	38.725
1163.16	11.5297
1166.06	20.7441
1168.95	21.5466
1171.84	27.3202
1174.73	5.41531
1177.63	42.6926
1180.52	23.0819
1183.41	29.9087
1186.31	21.3838
1189.2	28.9964
1192.09	24.0015
1194.98	12.8432
1197.88	25.8807
1200.77	17.3771
1203.66	29.7426
1206.56	27.0105
1209.45	14.7141
1212.34	18.2752
1215.23	16.8826
1218.12	23.1697
1221.02	16.5432
1223.91	16.8062
1226.8	2.80936
1229.7	21.8952
1232.59	14.0904
1235.48	11.4536
1238.37	28.034
1241.27	3.85689
1244.16	2.09749
