Measurement: Raman, 780 nm, unoriented, Raman Data Processed
Mineral: Litidionite
Rruff sample: R130088
Ideal chemistry: KNaCu^2+^Si_4_O_10_
Locality: Mt Vesuvius, Napoli, Italy
Source: Rock Currier
Description: Blue to green glassy, massive. The two larger fragments are from the 1880 eruption. The smaller fragment is from 1873.
Raman shift (cm-1)	intensity
198.229	0
201.122	0.381538
204.015	0.891705
206.907	0.712757
209.8	0.39415
212.693	1.22385
215.586	0.452469
218.478	0.580711
221.371	0.133244
224.264	0.98024
227.156	0.866589
230.049	1.80163
232.942	3.21738
235.834	3.45806
238.727	6.07308
241.62	4.59356
244.513	5.77982
247.405	3.08774
250.298	2.20831
253.191	1.06262
256.083	0.255093
258.976	2.16257
261.869	1.13059
264.762	1.42864
267.654	0.481823
270.547	1.27436
273.44	0.702019
276.332	0.995289
279.225	0.401806
282.118	0.869404
285.01	0.066616
287.903	0.519844
290.796	0.919842
293.688	0.422012
296.581	0.709385
299.474	0.147511
302.366	1.08878
305.259	1.42087
308.152	0.523838
311.045	0.657192
313.937	1.66551
316.83	1.0418
319.723	1.85831
322.615	2.16335
325.508	1.76151
328.401	1.19582
331.293	1.13137
334.186	1.12639
337.079	1.49639
339.972	1.20491
342.864	1.38221
345.757	1.37127
348.65	0.323174
351.542	1.14206
354.435	0.490044
357.328	0.982914
360.221	0.58094
363.113	0.804916
366.006	0.275623
368.899	1.03458
371.791	1.24499
374.684	0.903427
377.577	1.45013
380.469	0.494347
383.362	0.847061
386.255	0.527008
389.147	0.997341
392.04	0.508072
394.933	0.719624
397.826	0.266422
400.718	1.60243
403.611	0.658951
406.504	0.005943
409.396	0.625435
412.289	0.090427
415.182	0.58807
418.075	0.496185
420.967	0.152264
423.86	0.407879
426.753	0.914566
429.645	1.0147
432.538	0.911732
435.431	0.440681
438.323	0.297237
441.216	0.480209
444.109	0.489796
447.001	0.543316
449.894	0.06094
452.787	0.229168
455.68	1.08907
458.572	0.910805
461.465	1.42475
464.358	0.924915
467.25	1.21945
470.143	0.839733
473.036	0.715744
475.928	0.20483
478.821	0.246677
481.714	1.41908
484.606	1.63129
487.499	1.13097
490.392	0.508011
493.285	1.41197
496.177	1.05602
499.07	0.935139
501.963	1.88295
504.855	1.7718
507.748	1.09523
510.641	0.873062
513.534	1.50035
516.426	0.479481
519.319	0.923641
522.212	0.245857
525.104	1.42165
527.997	0.847019
530.89	1.08676
533.782	0.720512
536.675	0.453487
539.568	0.709354
542.46	0.473221
545.353	0.005917
548.246	0.633289
551.139	0.466049
554.031	0.158005
556.924	0.191196
559.817	0.549789
562.709	0.881748
565.602	0.422558
568.495	0.072159
571.388	0.242424
574.28	0.073643
577.173	1.41226
580.066	1.27138
582.958	2.2394
585.851	2.30434
588.744	2.826
591.636	3.32198
594.529	2.53061
597.422	2.20127
600.314	1.16589
603.207	1.56675
606.1	0.923542
608.993	0.761848
611.885	0.686863
614.778	1.22758
617.671	1.06366
620.563	0.140293
623.456	0.018364
626.349	0.342083
629.241	1.223
632.134	0.02232
635.027	0.123722
637.919	0.939735
640.812	0.425819
643.705	0.205189
646.598	0.487438
649.49	0.117981
652.383	0.962299
655.276	1.99451
658.168	1.54807
661.061	0.922459
663.954	1.37854
666.846	1.29255
669.739	0.686123
672.632	1.46108
675.525	0.194298
678.417	1.13844
681.31	1.04535
684.203	2.01979
687.095	0.499874
689.988	0.6898
692.881	1.41523
695.774	0.913559
698.666	1.02052
701.559	0.72065
704.452	0.625881
707.344	0.897724
710.237	0.095871
713.13	0.887184
716.022	0.079807
718.915	0.378422
721.808	0.987946
724.7	0.022182
727.593	0.288197
730.486	0.182617
733.379	0.012806
736.271	0.107285
739.164	0.171558
742.057	0.277428
744.949	1.00676
747.842	0.526981
750.735	1.60766
753.627	0.007404
756.52	0.464859
759.413	0.448006
762.306	0.012096
765.198	0.068279
768.091	0.054718
770.984	0.428093
773.876	0.550213
776.769	0.72451
779.662	0.449516
782.554	0.044647
785.447	0.763321
788.34	0.704857
791.232	0.816296
794.125	0.848564
797.018	1.10242
799.911	1.4518
802.803	1.2739
805.696	1.17697
808.589	0.834991
811.481	1.09863
814.374	1.06992
817.267	1.16442
820.159	1.76659
823.052	1.5476
825.945	1.50458
828.838	1.9631
831.73	2.25844
834.623	1.66108
837.516	1.86107
840.408	1.64725
843.301	1.97761
846.194	0.940174
849.087	2.61687
851.979	2.37775
854.872	1.59956
857.765	2.23572
860.657	1.89957
863.55	1.10719
866.443	2.00518
869.335	0.904331
872.228	0.767105
875.121	1.64058
878.013	1.2083
880.906	0.789993
883.799	0.935093
886.692	0.844425
889.584	1.17051
892.477	0.352661
895.37	1.14619
898.262	0.703682
901.155	1.17247
904.048	0.248064
906.94	0.123291
909.833	0.341761
912.726	0.700693
915.619	0.218449
918.511	0.501364
921.404	0.268555
924.297	0.067837
927.189	0.673353
930.082	0.643354
932.975	0.417667
935.867	0.186756
938.76	0.366062
941.653	0.142893
944.545	0.030449
947.438	0.211817
950.331	0.182667
953.224	0.617849
956.116	0.791061
959.009	0.666483
961.902	1.20774
964.794	0.116699
967.687	0.857862
970.58	0.378441
973.472	1.14407
976.365	0.62236
979.258	1.57059
982.151	1.00124
985.043	0.652592
987.936	1.14764
990.829	1.00262
993.721	1.80889
996.614	1.43749
999.507	2.48274
1002.4	0.713472
1005.29	1.07709
1008.18	1.1565
1011.08	1.01271
1013.97	0.490028
1016.86	1.21419
1019.76	0.197857
1022.65	1.08663
1025.54	1.22766
1028.43	0.04674
1031.33	0.45236
1034.22	0.879715
1037.11	1.13739
1040.01	1.4278
1042.9	1.27131
1045.79	0.990204
1048.68	0.380093
1051.58	0.116554
1054.47	0.835077
1057.36	0.655205
1060.25	0.094799
1063.15	0.272367
1066.04	0.419287
1068.93	1.15543
1071.82	0.439558
1074.72	0.105392
1077.61	0.691339
1080.5	0.439325
1083.39	0.664307
1086.29	0.211708
1089.18	0.830994
1092.07	1.26262
1094.97	1.48377
1097.86	2.03186
1100.75	1.37042
1103.64	1.59685
1106.54	2.09745
1109.43	2.34358
1112.32	2.92762
1115.21	1.45803
1118.11	2.01802
1121	1.16151
1123.89	1.06509
1126.79	0.025166
1129.68	0.671377
1132.57	0.185795
1135.46	0.379665
1138.36	0.480305
1141.25	1.04878
1144.14	0.369774
1147.03	1.11905
1149.93	0.439638
1152.82	0.800682
1155.71	0.431192
1158.61	0.019993
1161.5	1.2473
1164.39	0.875858
1167.28	0.221254
1170.18	1.15252
1173.07	1.36963
1175.96	1.47114
1178.85	1.35604
1181.75	1.38839
1184.64	1.17674
1187.53	1.83962
1190.42	2.16893
1193.32	1.58371
1196.21	0.909817
1199.1	0.361576
1202	0.398979
1204.89	0.995932
1207.78	0.696503
1210.67	0.979845
1213.57	0.860813
1216.46	0.6978
1219.35	1.36154
1222.24	0.659712
1225.14	0.843307
1228.03	1.75905
1230.92	0.258488
1233.82	1.62599
1236.71	0.805147
1239.6	0.659508
1242.49	0.825535
1245.39	0.743664
1248.28	0.298285
1251.17	0.778
1254.06	1.05655
1256.96	0.941906
1259.85	1.45916
1262.74	1.47825
1265.63	0.435095
1268.53	0.699072
1271.42	1.36975
1274.31	0.209991
1277.21	1.44959
1280.1	0.043081
1282.99	0.822062
