Measurement: Raman, 785 nm, unoriented, Raman Data Processed
Mineral: Lokkaite-(Y)
Rruff sample: R061092
Ideal chemistry: CaY_4_(CO_3_)_7_9H_2_O
Locality: Mitsukoshi, Hizen-cho, Karatsu City, Saga Prefecture, Japan
Source: Marcus Origlieri
Description: Pale pink radial aggregate of blades
Raman shift (cm-1)	intensity
88.7441	0
92.119	24.7026
95.4938	30.7443
98.8686	118.755
102.243	86.9804
105.618	161.404
108.993	142.073
112.368	87.4872
115.743	130.19
119.118	44.9748
122.492	37.1294
125.867	41.0973
129.242	46.4449
132.617	96.7661
135.992	45.1306
139.366	19.2069
142.741	26.9228
146.116	121.319
149.491	254.449
152.866	239.194
156.24	156.461
159.615	143.219
162.99	164.875
166.365	280.433
169.74	340.573
173.114	301.119
176.489	249.001
179.864	258.806
183.239	255.895
186.614	356.229
189.989	418.319
193.363	420.438
196.738	594.528
200.113	721.501
203.488	811.535
206.863	875.396
210.238	927.061
213.612	906.867
216.987	820.503
220.362	729.373
223.737	621.413
227.112	447.563
230.486	311.582
233.861	151.766
237.236	143.362
240.611	100.66
243.986	56.7461
247.36	44.9637
250.735	23.4756
254.11	32.6279
257.485	25.0016
260.86	74.0048
264.235	92.5315
267.609	84.1793
270.984	35.0973
274.359	69.8279
277.734	80.9055
281.109	147.656
284.483	109.987
287.858	69.0823
291.233	32.2994
294.608	38.9647
297.983	10.0974
301.358	6.97375
304.732	43.5005
308.107	14.757
311.482	12.8965
314.857	45.7205
318.231	30.5527
321.606	0.243164
324.981	54.4977
328.356	57.5269
331.731	71.2081
335.106	60.28
338.48	129.518
341.855	63.0808
345.23	153.09
348.605	165.221
351.98	173.982
355.354	152.774
358.729	173.526
362.104	144.221
365.479	150.82
368.854	126.971
372.229	76.3732
375.603	54.9797
378.978	108.969
382.353	5.20978
385.728	23.4526
389.103	2.65405
392.478	7.20428
395.852	13.6561
399.227	19.6347
402.602	36.7435
405.977	39.3669
409.352	12.5612
412.726	15.1216
416.101	51.4436
419.476	36.8306
422.851	46.0414
426.226	86.8301
429.6	108.744
432.975	129.494
436.35	124.394
439.725	150.394
443.1	165.673
446.474	137.361
449.849	136.142
453.224	133.597
456.599	112.397
459.974	109.505
463.349	143.03
466.723	106.327
470.098	99.1704
473.473	118.757
476.848	84.8259
480.223	77.3172
483.598	71.4332
486.972	67.3009
490.347	59.9694
493.722	79.0891
497.097	30.9107
500.472	48.685
503.846	68.3525
507.221	66.402
510.596	91.1158
513.971	46.8397
517.346	114.996
520.721	118.853
524.095	54.3866
527.47	107.179
530.845	60.8369
534.22	80.4149
537.595	56.2467
540.969	86.6168
544.344	32.4593
547.719	53.7216
551.094	76.8046
554.469	13.5208
557.843	83.1573
561.218	43.3668
564.593	2.77151
567.968	27.0907
571.343	7.71182
574.717	3.03696
578.092	8.10416
581.467	33.9219
584.842	9.88068
588.217	26.6609
591.592	32.4432
594.966	5.72443
598.341	27.9304
601.716	45.804
605.091	51.4396
608.466	76.4173
611.841	106.76
615.215	76.9604
618.59	79.0623
621.965	102.969
625.34	101.315
628.715	156.901
632.089	164.905
635.464	145.327
638.839	203.881
642.214	202.664
645.589	180.274
648.963	205.7
652.338	194.703
655.713	177.456
659.088	191.666
662.463	140.688
665.837	162.26
669.212	179.331
672.587	137.676
675.962	139.623
679.337	108.427
682.712	138.957
686.086	156.6
689.461	130.303
692.836	160.74
696.211	101.919
699.586	110.319
702.96	108.271
706.335	112.344
709.71	153.814
713.085	99.9959
716.46	81.5301
719.835	88.0697
723.209	50.5367
726.584	38.6283
729.959	41.4267
733.334	46.5824
736.709	16.1669
740.083	28.7383
743.458	6.48859
746.833	3.52881
750.208	6.8512
753.583	36.0969
756.957	18.5087
760.332	36.338
763.707	23.3168
767.082	105.001
770.457	47.6956
773.832	31.5478
777.206	35.8827
780.581	49.1486
783.956	3.71004
787.331	18.1911
790.706	71.3456
794.08	50.6535
797.455	33.4079
800.83	13.5318
804.205	71.1959
807.58	27.9445
810.955	61.7179
814.329	50.8025
817.704	36.2095
821.079	28.2739
824.454	38.2508
827.829	55.0978
831.203	104.203
834.578	44.9458
837.953	93.3576
841.328	25.229
844.703	87.0413
848.077	48.3661
851.452	21.6717
854.827	63.8045
858.202	78.4359
861.577	34.9528
864.952	56.9665
868.326	16.1512
871.701	58.9475
875.076	45.4149
878.451	57.6056
881.826	26.6878
885.2	3.07596
888.575	22.5585
891.95	16.8094
895.325	31.0589
898.7	1.99106
902.074	8.61783
905.449	15.0089
908.824	8.52518
912.199	18.8
915.574	4.09155
918.949	24.736
922.323	17.7199
925.698	24.2947
929.073	11.5715
932.448	19.5955
935.823	23.3049
939.197	22.299
942.572	25.5722
945.947	48.9402
949.322	39.9626
952.697	84.2058
956.072	14.9999
959.446	43.2663
962.821	94.5159
966.196	44.3176
969.571	67.0338
972.946	89.2604
976.32	73.472
979.695	161.749
983.07	132.891
986.445	146.277
989.82	90.0435
993.194	116.579
996.569	139.018
999.944	197.654
1003.32	247.357
1006.69	251.636
1010.07	238.967
1013.44	287.096
1016.82	278.033
1020.19	324.261
1023.57	312.617
1026.94	335.077
1030.32	418.877
1033.69	388.412
1037.07	503.468
1040.44	478.695
1043.82	513.579
1047.19	484.587
1050.57	542.947
1053.94	675.561
1057.32	714.559
1060.69	820.904
1064.07	1036.69
1067.44	1046.59
1070.82	1055.22
1074.19	986.312
1077.57	921.996
1080.94	887.94
1084.31	790.08
1087.69	694.317
1091.06	719.449
1094.44	626.981
1097.81	653.152
1101.19	528.599
1104.56	230.312
1107.94	93.1143
1111.31	28.3726
1114.69	76.3818
1118.06	179.825
1121.44	208.137
1124.81	283.188
1128.19	199.918
1131.56	177.565
1134.94	59.2715
1138.31	316.054
1141.69	585.51
1145.06	1217.04
1148.44	1863.96
1151.81	2765.08
1155.19	3964.3
1158.56	5228.23
1161.93	6532.72
1165.31	7874.8
1168.68	9189.51
1172.06	10160.9
1175.43	10915
1178.81	11217.6
1182.18	11220.9
1185.56	11016.6
1188.93	10748
1192.31	10505
1195.68	10244.1
1199.06	10361.5
1202.43	10668.7
1205.81	11638.8
1209.18	13535.7
1212.56	16120.9
1215.93	19248.6
1219.31	22130.3
1222.68	24062.9
1226.06	24677.2
1229.43	23815.4
1232.81	21918.9
1236.18	19177.5
1239.56	15965.8
1242.93	12901.2
1246.31	10021
1249.68	7340.42
1253.06	5003.6
1256.43	3065.7
1259.81	1661.48
1263.18	394.81
1266.56	54.7266
1269.93	137.506
