Measurement: Raman, 780 nm, unoriented, Raman Data Processed
Mineral: Lollingite
Rruff sample: R060185
Ideal chemistry: FeAs_2_
Locality: MW Claim, Seagull Batholith, Cassiar Mountains, Yukon, Canada
Source: Lloyd Twaites
Description: Steel-gray metallic fragments
Measured chemistry: Fe_1.00_(As_1.90_S_0.10_)_Î£=2_
Raman shift (cm-1)	intensity
137.826	0
140.719	2.10965
143.612	1.43974
146.505	1.56454
149.397	1.53425
152.29	0.17462
155.183	0.692809
158.075	0.10477
160.968	0.053476
163.861	1.0217
166.753	1.0147
169.646	0.890952
172.539	0.251244
175.431	1.39248
178.324	0.381796
181.217	0.479182
184.11	0.00123
187.002	1.77731
189.895	0.020391
192.788	0.336907
195.68	0.196347
198.573	1.12066
201.466	0.066825
204.358	1.0003
207.251	1.07005
210.144	0.264659
213.037	0.898156
215.929	1.79025
218.822	1.77098
221.715	1.63085
224.607	2.59765
227.5	1.89066
230.393	3.58431
233.286	2.80835
236.178	3.53132
239.071	5.08517
241.964	4.89015
244.856	5.36135
247.749	3.51884
250.642	3.29173
253.534	1.74239
256.427	1.20058
259.32	1.10748
262.212	0.781341
265.105	0.976575
267.998	0.338481
270.891	0.865314
273.783	0.014521
276.676	0.23422
279.569	0.812035
282.461	0.804122
285.354	0.985232
288.247	0.026306
291.139	0.103161
294.032	0.302958
296.925	0.970164
299.817	0.019505
302.71	0.00801
305.603	0.027257
308.496	0.060761
311.388	0.644049
314.281	0.541964
317.174	0.2711
320.066	0.964136
322.959	1.02328
325.852	1.08615
328.745	1.24421
331.637	0.801934
334.53	0.376518
337.423	0.315593
340.315	1.13412
343.208	0.909519
346.101	0.457256
348.993	1.46495
351.886	0.878401
354.779	1.21507
357.671	1.72644
360.564	2.0644
363.457	0.018256
366.35	1.95543
369.242	1.3415
372.135	1.16992
375.028	0.190449
377.92	0.891081
380.813	0.012136
383.706	0.382945
386.599	0.030635
389.491	0.577596
392.384	0.702554
395.277	0.748415
398.169	0.066493
401.062	0.286046
403.955	0.521005
406.847	0.033496
409.74	0.031319
412.633	0.914315
415.526	0.021189
418.418	0.662121
421.311	0.162042
424.204	0.391426
427.096	0.728059
429.989	0.496899
432.882	0.251076
435.774	0.060286
438.667	0.926991
441.56	0.674951
444.452	0.679166
447.345	1.4992
450.238	1.18244
453.13	0.66906
456.023	2.05664
458.916	2.19194
461.809	2.28976
464.701	1.48415
467.594	1.42406
470.487	0.441072
473.379	0.406636
476.272	0.706161
479.165	0.986548
482.058	0.284298
484.95	1.08246
487.843	1.47823
490.736	1.6318
493.628	1.65704
496.521	1.99251
499.414	1.35736
502.306	0.471856
505.199	0.572246
508.092	0.728386
510.985	0.261889
513.877	0.139011
516.77	0.976663
519.663	0.356528
522.555	0.420088
525.448	0.518726
528.341	0.995431
531.233	1.23131
534.126	0.483936
537.019	1.29111
539.912	1.22335
542.804	1.59548
545.697	2.02572
548.59	2.0797
551.482	1.54889
554.375	1.66698
557.268	0.372536
560.16	0.485288
563.053	0.064922
565.946	0.018223
568.838	0.674489
571.731	0.745411
574.624	0.055401
577.516	0.499586
580.409	0.001966
583.302	0.198948
586.195	0.010751
589.087	0.417709
591.98	0.621049
594.873	0.750133
597.765	0.077159
600.658	0.221078
603.551	1.25793
606.443	0.543272
609.336	1.16237
612.229	1.38688
615.122	1.06337
618.014	1.21891
620.907	0.846437
623.8	0.282459
626.692	1.2686
629.585	0.585472
632.478	0.061686
635.37	0.443621
638.263	1.8997
641.156	0.095446
644.049	1.22449
646.941	1.20896
649.834	1.17736
652.727	1.10696
655.619	1.50751
658.512	1.14627
661.405	1.26607
664.298	1.22647
667.19	0.434596
670.083	0.973745
672.976	1.83909
675.868	1.91773
678.761	0.208462
681.654	1.75622
684.546	0.075494
687.439	0.877482
690.332	0.112571
693.225	0.391416
696.117	0.529388
699.01	0.039395
701.903	0.035121
704.795	0.072734
707.688	0.181569
710.581	0.921295
713.473	0.108935
716.366	1.11193
719.259	1.73599
722.151	1.16153
725.044	0.15438
727.937	1.20968
730.83	1.20323
733.722	1.09005
736.615	0.544109
739.508	0.548951
742.4	0.906654
745.293	0.44498
748.186	0.631647
751.078	0.749954
753.971	0.352308
756.864	0.041722
759.756	0.48457
762.649	1.42731
765.542	0.62278
768.435	0.157759
771.327	0.037419
774.22	0.591402
777.113	1.51829
780.005	0.423914
782.898	1.3803
785.791	0.847137
788.683	0.172969
791.576	0.945115
794.469	0.880918
797.362	0.030677
800.254	0.299156
803.147	0.401049
806.04	0.057715
808.932	0.204962
811.825	0.19264
814.718	0.066172
817.611	0.179481
820.503	0.599494
823.396	0.469576
826.289	1.41897
829.181	0.687433
832.074	0.812587
834.967	1.33568
837.859	0.325494
840.752	1.77948
843.645	1.27291
846.538	1.40763
849.43	0.586976
852.323	1.20814
855.216	1.55796
858.108	1.78912
861.001	1.64976
863.894	0.662181
866.786	0.579846
869.679	1.15308
872.572	1.59302
875.464	1.03268
878.357	1.04859
881.25	0.563358
884.143	0.185776
887.035	0.918865
889.928	0.059795
892.821	0.466715
895.713	0.036451
898.606	0.068153
901.499	0.433372
904.391	0.181957
907.284	0.402209
910.177	0.037251
913.069	0.048127
915.962	0.594399
918.855	0.160904
921.748	0.269408
924.64	0.404304
927.533	0.554471
930.426	1.47643
933.318	0.170161
936.211	0.473269
939.104	0.725107
941.996	0.805443
944.889	1.58205
947.782	0.890211
950.675	0.75013
953.567	0.530639
956.46	0.629203
959.353	0.288564
962.245	0.555396
965.138	0.051634
968.031	0.363854
970.923	0.258611
973.816	0.055185
976.709	0.035228
979.602	0.098268
982.494	0.01736
985.387	0.000298
988.28	0.235681
991.172	0.25451
994.065	0.621559
996.958	0.408901
999.851	0.538136
1002.74	0.252376
1005.64	1.52398
1008.53	1.46583
1011.42	0.438632
1014.31	1.02857
1017.21	1.1022
1020.1	0.16031
1022.99	0.031175
1025.88	1.18771
1028.78	0.836244
1031.67	1.54009
1034.56	0.745942
1037.46	0.001756
1040.35	0.089423
1043.24	1.35628
1046.13	0.639038
1049.03	1.27275
1051.92	1.29461
1054.81	0.279734
1057.7	0.577018
1060.6	0.740673
1063.49	0.077117
1066.38	0.433647
1069.28	0.651574
1072.17	0.054849
1075.06	1.76349
1077.95	0.322999
1080.85	0.699235
1083.74	0.16887
1086.63	2.4e-05
1089.52	0.269305
1092.42	0.172222
1095.31	0.52124
1098.2	0.095905
1101.1	1.25281
1103.99	0.004064
1106.88	1.35994
1109.77	0.558828
1112.67	0.175107
1115.56	0.5344
1118.45	1.37874
1121.34	0.176285
1124.24	0.934679
1127.13	0.355948
1130.02	0.362247
1132.91	0.246805
1135.81	0.52505
1138.7	0.036472
1141.59	1.42496
1144.48	0.060698
1147.38	0.311711
1150.27	0.26726
1153.16	0.90615
1156.06	0.640151
1158.95	0.332799
1161.84	1.88847
1164.73	0.663627
1167.63	1.0583
1170.52	0.807728
1173.41	0.560332
1176.31	0.513109
1179.2	1.7734
1182.09	0.21637
1184.98	0.753755
1187.88	1.2629
1190.77	0.953451
1193.66	0.671792
1196.55	0.064711
1199.45	0.874232
1202.34	0.420662
1205.23	1.32233
1208.12	1.22001
1211.02	0.068384
1213.91	0.005366
1216.8	0.077926
1219.7	0.92732
1222.59	0.080274
1225.48	0.575828
1228.37	0.474457
1231.27	1.02642
1234.16	1.89013
1237.05	1.11773
1239.94	1.50172
1242.84	1.07447
1245.73	0.988763
1248.62	0.443013
1251.52	0.441788
1254.41	0.175383
1257.3	1.31234
1260.19	0.008461
1263.09	0.042113
1265.98	0.240598
1268.87	0.021035
1271.76	0.345836
1274.66	1.69263
1277.55	0.464771
1280.44	1.4101
1283.34	0.070537
1286.23	0
