Measurement: Raman, 780 nm, unoriented, Raman Data Processed
Mineral: Lollingite
Rruff sample: R060668
Ideal chemistry: FeAs_2_
Locality: Aghbar near Bou-Azzer, Morocco
Source: Michael Scott
Description: Gray metallic spears radiating in spherical aggregates, associated with arsenopyrite and skutterudite
Measured chemistry: (Fe_0.80_Co_0.20_)_Σ=1_(As_1.85_S_0.15_)_Σ=2_
Raman shift (cm-1)	intensity
94.9347	0
98.3096	3.36664
101.684	9.72662
105.059	7.5257
108.434	23.2876
111.809	1.60593
115.184	4.27362
118.558	5.41681
121.933	0.755768
125.308	16.4848
128.683	10.9657
132.058	13.9226
135.433	12.2926
138.807	13.0821
142.182	14.0458
145.557	5.17776
148.932	2.13769
152.307	5.2063
155.681	2.00705
159.056	8.13269
162.431	10.6733
165.806	11.6845
169.181	12.8065
172.555	16.5681
175.93	13.5129
179.305	14.9069
182.68	14.1018
186.055	14.8403
189.43	13.9986
192.804	15.1509
196.179	16.6895
199.554	17.0067
202.929	16.2714
206.304	18.4539
209.678	15.7283
213.053	14.9238
216.428	14.6716
219.803	15.2308
223.178	14.2114
226.553	15.4466
229.927	18.3807
233.302	20.4957
236.677	24.2832
240.052	27.2942
243.427	28.9862
246.801	23.1867
250.176	14.8878
253.551	11.639
256.926	9.96739
260.301	8.68236
263.675	8.93031
267.05	6.26534
270.425	3.84135
273.8	1.08415
277.175	0.861969
280.55	0.652023
283.924	0.089737
287.299	0.798584
290.674	0.721191
294.049	0.213974
297.424	0.444199
300.798	1.1646
304.173	0.350113
307.548	0.096222
310.923	0.46962
314.298	0.539063
317.673	0.947311
321.047	0.361969
324.422	1.05154
327.797	1.23582
331.172	0.524963
334.547	0.928909
337.921	1.31938
341.296	1.43181
344.671	2.14882
348.046	0.998383
351.421	1.27869
354.796	0.127441
358.17	1.71805
361.545	0.090591
364.92	0.090561
368.295	0.983902
371.67	0.055588
375.044	0.62944
378.419	0.78299
381.794	0.584778
385.169	1.61437
388.544	1.21768
391.918	2.32774
395.293	1.1161
398.668	1.08896
402.043	0.677109
405.418	0.329788
408.793	1.30698
412.167	0.729523
415.542	1.2032
418.917	0.075058
422.292	1.97163
425.667	1.97026
429.041	1.93683
432.416	2.25333
435.791	1.11104
439.166	0.914566
442.541	1.40881
445.915	0.871552
449.29	1.61261
452.665	2.02472
456.04	1.59352
459.415	1.01688
462.789	2.10951
466.164	1.81168
469.539	1.7645
472.914	0.828812
476.289	2.49867
479.664	1.63126
483.038	2.33336
486.413	2.867
489.788	1.99892
493.163	1.90381
496.538	1.83939
499.913	2.21513
503.287	0.506668
506.662	1.24645
510.037	0.983047
513.412	1.35948
516.787	1.56697
520.161	1.29555
523.536	0.012085
526.911	1.24654
530.286	0.586609
533.661	0.849457
537.035	0.976013
540.41	1.00775
543.785	1.57277
547.16	0.056374
550.535	0.561058
553.909	2.00713
557.284	1.62773
560.659	0.869247
564.034	0.691772
567.409	1.49171
570.784	1.20504
574.158	0.941132
577.533	1.31302
580.908	0.300797
584.283	0.874313
587.658	0.741554
591.033	0.315964
594.407	1.26808
597.782	1.22369
601.157	0.912331
604.532	0.368568
607.907	0.671448
611.281	1.08494
614.656	0.250298
618.031	0.798813
621.406	0.530838
624.781	0.654793
628.155	1.55657
631.53	3.95843
634.905	0.917107
638.28	1.39493
641.655	2.43494
645.029	1.6893
648.404	2.24382
651.779	1.57836
655.154	1.07901
658.529	2.05085
661.904	2.10132
665.278	1.22161
668.653	1.55736
672.028	1.66481
675.403	1.37049
678.778	0.318054
682.153	1.53458
685.527	1.5254
688.902	0.511795
692.277	0.721329
695.652	0.22538
699.027	0.551155
702.401	0.879585
705.776	0.35421
709.151	0.116158
712.526	0.457756
715.901	0.433479
719.275	0.969597
722.65	0.760994
726.025	0.428322
729.4	0.559547
732.775	0.921295
736.149	0.867218
739.524	0.797272
742.899	1.30574
746.274	1.47872
749.649	0.242889
753.024	0.703804
756.398	0.659531
759.773	0.5998
763.148	0.5662
766.523	0.485062
769.898	0.703194
773.273	1.44358
776.647	1.04218
780.022	1.15429
783.397	1.30419
786.772	2.62831
790.146	2.45691
793.521	2.7932
796.896	2.41798
800.271	2.72134
803.646	2.50697
807.021	3.69088
810.395	3.62657
813.77	3.57666
817.145	3.65127
820.52	4.48696
823.895	3.35833
827.269	5.31099
830.644	4.72708
834.019	5.99181
837.394	6.47984
840.769	7.26823
844.144	6.07093
847.518	7.20452
850.893	6.43574
854.268	6.8361
857.643	6.30772
861.018	6.99982
864.393	7.24584
867.767	5.97567
871.142	6.11203
874.517	5.18377
877.892	4.68259
881.266	4.92272
884.641	4.03597
888.016	4.05955
891.391	2.55072
894.766	2.23657
898.141	1.72115
901.515	0.257561
904.89	1.71859
908.265	0.881271
911.64	0.187592
915.015	0.754997
918.389	0.057755
921.764	0.263947
925.139	0.220474
928.514	0.492088
931.889	0.404083
935.264	0.448662
938.638	0.656143
942.013	0.803551
945.388	0.666931
948.763	0.540848
952.138	0.492065
955.512	0.832161
958.887	0.00956
962.262	0.35218
965.637	1.05783
969.012	0.639572
972.386	0.441277
975.761	0.415565
979.136	1.69725
982.511	0.534737
985.886	0.660599
989.261	0.857544
992.635	1.95358
996.01	0.529861
999.385	0.843384
1002.76	1.28754
1006.13	1.57333
1009.51	1.66705
1012.88	1.6054
1016.26	1.38056
1019.63	1.88378
1023.01	1.27541
1026.38	2.03773
1029.76	2.15408
1033.13	1.88349
1036.51	3.10991
1039.88	2.00904
1043.26	2.06502
1046.63	3.05531
1050.01	2.77422
1053.38	1.96413
1056.76	2.37193
1060.13	2.28545
1063.51	2.22416
1066.88	1.70599
1070.26	1.1516
1073.63	1.74379
1077.01	1.68916
1080.38	1.09942
1083.76	1.33905
1087.13	0.948227
1090.51	0.794571
1093.88	0.289688
1097.26	0.040245
1100.63	1.11685
1104	0.072334
1107.38	0.090118
1110.75	1.56456
1114.13	0.576668
1117.5	0.086655
1120.88	0.584282
1124.25	0.312538
1127.63	0.177391
1131	0.789696
1134.38	0.441734
1137.75	0.063347
1141.13	0.418068
1144.5	0.554901
1147.88	0.982353
1151.25	0.415154
1154.63	0.741722
1158	0.267853
1161.38	0.778488
1164.75	0.617851
1168.13	1.01196
1171.5	1.22576
1174.88	1.0622
1178.25	0.920631
1181.62	1.48146
1185	1.16001
1188.38	1.43511
1191.75	1.45372
1195.12	1.39523
1198.5	0.689766
1201.87	1.46111
1205.25	1.67046
1208.62	1.38569
1212	1.06762
1215.37	0.710129
1218.75	1.82442
1222.12	1.82207
1225.5	0.428413
1228.87	0.968536
1232.25	0.513573
1235.62	0.643646
1239	0.108818
1242.37	3.03912
1245.75	0.645248
1249.12	0.704414
1252.5	1.16666
1255.87	0.942093
1259.25	1.21784
1262.62	1.76387
1265.99	1.94301
1269.37	1.63227
1272.74	0.079803
1276.12	1.27277
1279.49	0.071457
1282.87	0.611015
