Measurement: Raman, 532 nm, unoriented, Raman Data Processed
Mineral: Luanheite
Rruff sample: R060677
Ideal chemistry: Ag_3_Hg
Locality: Elisa de Bordos mine, Tierra Amarilla, Chile
Source: Bob Jenkins
Description: White and black tarnish massive mixture
Raman shift (cm-1)	intensity
130.2	0
133.574	82.675
136.949	307.032
140.324	537.737
143.699	598.149
147.074	630.151
150.449	645.86
153.823	705
157.198	716.13
160.573	814.756
163.948	942.313
167.323	960.5
170.697	996.537
174.072	1033.81
177.447	1070.34
180.822	1107.71
184.197	1149.47
187.572	1178.53
190.946	1159.62
194.321	1199.89
197.696	1200.06
201.071	1220.81
204.446	1229.24
207.82	1252.22
211.195	1209.37
214.57	1247.96
217.945	1243.42
221.32	1247.81
224.695	1263.99
228.069	1227.27
231.444	1253.06
234.819	1258.44
238.194	1193.16
241.569	1211.58
244.943	1162.8
248.318	1134.94
251.693	1162.3
255.068	1061.31
258.443	1035.27
261.818	957.04
265.192	1016.21
268.567	922.151
271.942	874.296
275.317	841.866
278.692	734.159
282.066	732.378
285.441	639.392
288.816	635.292
292.191	537.336
295.566	451.414
298.941	408.668
302.315	434.903
305.69	421.042
309.065	375.344
312.44	288.577
315.815	227.445
319.19	180.942
322.564	237.11
325.939	132.115
329.314	112.486
332.689	129.09
336.064	114.045
339.438	57.656
342.813	32.629
346.188	3.198
349.563	14.397
352.938	21.871
356.312	14.049
359.687	33.378
363.062	78.249
366.437	43.208
369.812	82.81
373.187	2.312
376.561	46.027
379.936	25.953
383.311	23.656
386.686	3.02
390.061	10.651
393.435	4.447
396.81	41.236
400.185	10.136
403.56	25.704
406.935	52.474
410.31	39.836
413.684	49.689
417.059	1.058
420.434	18.414
423.809	2.807
427.184	0.968
430.559	41.001
433.933	4.397
437.308	22.408
440.683	36.603
444.058	61.542
447.433	39.405
450.807	0.512
454.182	14.126
457.557	4.771
460.932	20.209
464.307	79.348
467.681	20.704
471.056	65.455
474.431	90.991
477.806	83.691
481.181	105.212
484.556	99.747
487.931	124.271
491.305	98.201
494.68	115.284
498.055	62.791
501.43	84.531
504.805	40.298
508.179	67.962
511.554	41.656
514.929	4.284
518.304	60.231
521.679	48.874
525.054	83.924
528.428	36.465
531.803	23.131
535.178	4.378
538.553	16.093
541.928	15.088
545.302	9.019
548.677	39.392
552.052	34.069
555.427	19.895
558.802	10.891
562.177	34.479
565.551	2.414
568.926	62.674
572.301	16.206
575.676	6.157
579.051	2.617
582.425	16.638
585.8	0.601
589.175	46.661
592.55	14.531
595.925	7.997
599.299	22.835
602.674	28.721
606.049	26.253
609.424	28.679
612.799	11.696
616.174	17.621
619.549	19.931
622.923	65.608
626.298	4.236
629.673	30.621
633.048	0.088
636.422	0.798
639.797	11.453
643.172	3.877
646.547	35.718
649.922	31.031
653.297	2.054
656.671	10.59
660.046	49.163
663.421	20.331
666.796	4.471
670.171	60.286
673.545	41.579
676.92	7.682
680.295	2.455
683.67	29.265
687.045	50.335
690.42	35.7
693.794	28.406
697.169	60.649
700.544	53.381
703.919	23.465
707.294	4.197
710.669	23.215
714.043	6.065
717.418	7.872
720.793	14.937
724.168	8.495
727.543	5.132
730.917	9.659
734.292	11.435
737.667	9.863
741.042	26.235
744.417	30.365
747.792	37.809
751.166	53.019
754.541	7.258
757.916	24.047
761.291	36.418
764.666	24.944
768.041	9.536
771.415	46.869
774.79	30.484
778.165	8.212
781.54	14.943
784.915	5.806
788.289	7.017
791.664	18.168
795.039	23.27
798.414	17.34
801.789	40.099
805.164	1.348
808.538	4.611
811.913	40.809
815.288	0.547
818.663	43.565
822.038	6.872
825.412	44.834
828.787	18.657
832.162	7.778
835.537	45.679
838.912	32.636
842.287	41.458
845.661	11.939
849.036	30.443
852.411	9.898
855.786	53.693
859.161	23.563
862.536	57.946
865.91	54.432
869.285	12.284
872.66	3.259
876.035	23.943
879.409	42.856
882.784	69.455
886.159	62.835
889.534	5.387
892.909	77.886
896.284	71.068
899.659	37.505
903.033	50.374
906.408	32.625
909.783	47.526
913.158	48.253
916.533	3.688
919.907	23.219
923.282	36.03
926.657	51.081
930.032	78.125
933.407	2.762
936.781	11.329
940.156	19.213
943.531	64.845
946.906	58.346
950.281	40.095
953.656	31.51
957.03	41.824
960.405	64.919
963.78	38.397
967.155	5.915
970.53	20.599
973.904	42.799
977.279	62.446
980.654	2.004
984.029	11.02
987.404	7.004
990.779	17.142
994.153	15.909
997.528	22.696
1000.9	48.16
1004.28	50.378
1007.65	2.791
1011.03	51.361
1014.4	34.451
1017.78	25.623
1021.15	30.868
1024.53	34.981
1027.9	60.72
1031.28	18.209
1034.65	36.62
1038.03	44.903
1041.4	10.52
1044.78	62.924
1048.15	27.682
1051.53	19.8
1054.9	44.683
1058.28	59.299
1061.65	12.158
1065.03	17.226
1068.4	16.879
1071.77	28.701
1075.15	19.825
1078.52	42.672
1081.9	34.409
1085.27	5.397
1088.65	11.239
1092.02	32.615
1095.4	24.628
1098.77	58.16
1102.15	33.203
1105.52	43.321
1108.9	42.406
1112.27	57.456
1115.65	16.032
1119.02	50.777
1122.4	6.179
1125.77	39.948
1129.15	64.289
1132.52	74.143
1135.9	14.723
1139.27	10.958
1142.65	37.781
1146.02	8.876
1149.39	55.464
1152.77	11.646
1156.14	25.902
1159.52	16.672
1162.89	26.13
1166.27	8.309
1169.64	47.679
1173.02	42.757
1176.39	41.802
1179.77	26.007
1183.14	26.618
1186.52	13.755
1189.89	2.591
1193.27	8.178
1196.64	19.788
1200.02	32.884
1203.39	17.73
1206.77	47.453
1210.14	55.077
1213.52	13.44
1216.89	23.588
1220.27	8.186
1223.64	30.248
1227.02	8.052
1230.39	33.396
1233.77	46.693
1237.14	26.736
1240.52	61.915
1243.89	56.033
1247.27	79.461
1250.64	45.707
1254.02	38.576
1257.39	71.444
1260.76	35.548
1264.14	20.337
1267.51	69.867
1270.89	92.746
1274.26	35.244
1277.64	49.421
1281.01	12.583
1284.39	38.568
1287.76	14.085
1291.14	39.648
1294.51	0
