Measurement: Raman, 785 nm, unoriented, Raman Data Processed
Mineral: Ludwigite
Rruff sample: R060844
Ideal chemistry: Mg_2_Fe^3+^O_2_(BO_3_)
Locality: Crestmore, California, USA
Source: Bob Jenkins
Description: Black elongated prismatic crystals
Raman shift (cm-1)	intensity
218.433	0
221.326	56.5908
224.218	103.805
227.111	194.974
230.004	234.571
232.896	210.637
235.789	314.737
238.682	290.255
241.575	253.051
244.467	200.384
247.36	312.603
250.253	96.3726
253.145	63.8115
256.038	50.7861
258.931	78.6279
261.823	13.4824
264.716	58.3525
267.609	76.5928
270.502	9.65918
273.394	58.9282
276.287	1.67969
279.18	86.8525
282.072	134.584
284.965	204.464
287.858	185.438
290.75	216.245
293.643	310.562
296.536	319.751
299.428	274.991
302.321	315.029
305.214	271.473
308.107	266.166
310.999	275.812
313.892	212.809
316.785	235.738
319.677	212.663
322.57	222.422
325.463	276.446
328.356	381.028
331.248	376.347
334.141	354.733
337.034	391.587
339.926	445.041
342.819	428.511
345.712	391.43
348.604	377.935
351.497	310.648
354.39	230.721
357.283	137.43
360.175	89.2686
363.068	44.3897
365.961	28.251
368.853	7.76221
371.746	10.9692
374.639	4.7915
377.531	15.9932
380.424	62.46
383.317	87.4609
386.209	41.6245
389.102	11.1274
391.995	64.8374
394.888	172.852
397.78	380.136
400.673	426.279
403.566	616.534
406.458	733.043
409.351	946.365
412.244	1113.71
415.137	1265.99
418.029	1441.35
420.922	1424.13
423.815	1440.99
426.707	1411.9
429.6	1340.71
432.493	1293.67
435.385	1264.62
438.278	1215.26
441.171	1183.92
444.063	1189.64
446.956	1165.35
449.849	1040.75
452.742	1014.4
455.634	1027.93
458.527	1052.53
461.42	1244.31
464.312	1439.26
467.205	1674.41
470.098	1945.1
472.99	2054.56
475.883	1993.74
478.776	1938.89
481.669	1673.24
484.561	1376.46
487.454	1160.84
490.347	887.156
493.239	702.46
496.132	536.204
499.025	357.212
501.918	257.4
504.81	218.859
507.703	165.888
510.596	152.053
513.488	291.649
516.381	469.34
519.274	810.935
522.166	1012.73
525.059	1171.99
527.952	1218.88
530.845	1189.24
533.737	1047.61
536.63	907.856
539.523	773.019
542.415	577.206
545.308	376.444
548.201	224.759
551.093	187.799
553.986	105.939
556.879	69.3257
559.771	52.1401
562.664	28.3686
565.557	7.8125
568.45	52.6128
571.342	15.6348
574.235	18.9336
577.128	37.9673
580.02	25.5615
582.913	19.5874
585.806	42.4785
588.699	0.503906
591.591	57.9839
594.484	29.1616
597.377	26.2085
600.269	5.4917
603.162	28.7134
606.055	39.4243
608.947	0.737793
611.84	70.251
614.733	91.3457
617.626	59.9009
620.518	96.2446
623.411	112.965
626.304	174.162
629.196	200.221
632.089	258.966
634.982	272.857
637.875	299.593
640.767	365.274
643.66	363.295
646.553	332.487
649.445	367.874
652.338	363.309
655.231	377.406
658.123	456.368
661.016	375.552
663.909	351.578
666.802	350.44
669.694	317.974
672.587	339.761
675.48	318.563
678.372	339.332
681.265	228.317
684.158	212.801
687.05	137.147
689.943	147.175
692.836	89.2339
695.729	90.4033
698.621	67.1035
701.514	9.15771
704.407	21.2124
707.299	75.7476
710.192	10.9819
713.085	40.9424
715.977	84.48
718.87	47.981
721.763	97.5459
724.655	87.4702
727.548	27.1685
730.441	4.58154
733.334	63.1035
736.226	42.4902
739.119	60.0054
742.012	32.8408
744.904	2.12598
747.797	111.775
750.69	133.358
753.582	122.675
756.475	103.367
759.368	75.3396
762.261	56.7817
765.153	71.3599
768.046	58.6135
770.939	77.9334
773.831	65.6023
776.724	45.019
779.617	87.2427
782.51	30.5266
785.402	33.2822
788.295	20.4282
791.188	66.3144
794.08	44.8816
796.973	47.8093
799.866	19.1475
802.758	26.9736
805.651	63.5164
808.544	37.8857
811.437	62.219
814.329	46.509
817.222	51.7707
820.115	50.8569
823.007	96.6365
825.9	97.6655
828.793	75.4597
831.685	80.5105
834.578	57.8372
837.471	67.792
840.364	84.0962
843.256	80.1526
846.149	87.9604
849.042	57.6338
851.934	49.9995
854.827	78.3765
857.72	64.3897
860.612	30.8023
863.505	76.8784
866.398	53.8728
869.29	77.0876
872.183	43.2644
875.076	46.3767
877.969	50.7041
880.861	27.0029
883.754	66.4206
886.647	4.84302
889.539	37.9651
892.432	33.7048
895.325	52.1665
898.217	26.5842
901.11	55.4685
904.003	6.52124
906.896	56.1179
909.788	38.8372
912.681	7.51196
915.574	2.73462
918.466	0.354248
921.359	4.57617
924.252	47.4014
927.145	41.8003
930.037	30.7217
932.93	55.1816
935.823	70.55
938.715	32.2583
941.608	8.08521
944.501	82.4216
947.394	98.729
950.286	91.988
953.179	81.2695
956.072	158.663
958.964	97.5068
961.857	63.2273
964.75	69.3208
967.642	9.25806
970.535	44.6321
973.428	59.1379
976.321	25.8743
979.213	79.3787
982.106	51.6758
984.999	103.477
987.891	77.762
990.784	16.6194
993.677	26.6592
996.569	27.5059
999.462	63.2773
1002.36	106.989
1005.25	40.7102
1008.14	49.7363
1011.03	53.0562
1013.93	74.929
1016.82	49.8276
1019.71	57.6826
1022.6	27.8796
1025.5	101.043
1028.39	81.8755
1031.28	84.4487
1034.17	16.3438
1037.07	68.2378
1039.96	88.8855
1042.85	67.2165
1045.74	79.9524
1048.64	45.5105
1051.53	71.1301
1054.42	34.4766
1057.32	50.3535
1060.21	62.7732
1063.1	73.8921
1065.99	38.8027
1068.89	34.5127
1071.78	39.8572
1074.67	46.9678
1077.57	31.5896
1080.46	46.4836
1083.35	21.4209
1086.24	49.6226
1089.14	4.49414
1092.03	22.4165
1094.92	54.2051
1097.81	6.59473
1100.71	75.6536
1103.6	67.5349
1106.49	32.3486
1109.38	93.5879
1112.28	58.489
1115.17	73.1211
1118.06	26.0215
1120.96	54.0288
1123.85	82.6047
1126.74	37.8188
1129.63	25.6377
1132.53	34.2498
1135.42	18.5005
1138.31	45.8997
1141.2	34.1636
1144.1	32.6668
1146.99	40.4688
1149.88	0.170898
1152.78	25.0046
1155.67	21.4487
1158.56	9.56616
1161.45	20.2202
1164.35	22.0325
1167.24	29.3821
1170.13	13.114
1173.02	30.0149
1175.92	43.2573
1178.81	60.5181
1181.7	31.2883
1184.6	91.3569
1187.49	110.404
1190.38	135.475
1193.27	73.3816
1196.17	105.8
1199.06	128.647
1201.95	103.443
1204.84	107.257
1207.74	48.7734
1210.63	131.838
1213.52	112.49
1216.41	201.867
1219.31	190.226
1222.2	177.638
1225.09	233.875
1227.98	237.815
1230.88	312.534
1233.77	375.568
1236.66	366.268
1239.56	376.385
1242.45	344.232
1245.34	238.807
1248.23	199.916
1251.13	62.6631
1254.02	31.6811
1256.91	58.0147
1259.81	20.4797
1262.7	9.19775
1265.59	15.9741
