Measurement: Raman, 780 nm, unoriented, Raman Data Processed
Mineral: Ludwigite
Rruff sample: R060010
Ideal chemistry: Mg_2_Fe^3+^O_2_(BO_3_)
Locality: Victoria Quarry, Riverside, California, USA
Source: University of Arizona Mineral Museum
Description: Black elongated prismatic crystals, associated with pale yellow clinohumite on white calcite matrix
Measured chemistry: (Mg_1.68_Fe^2+^_0.32_)_Σ=2_(Fe^3+^_0.74_Al_0.23_Cr_0.03_)_Σ=1_O_5_ ; B not measured but estimated by difference and charge balance
Raman shift (cm-1)	intensity
199.612	0
202.504	0.992615
205.397	7.43182
208.29	8.26309
211.182	13.5438
214.075	13.7983
216.968	14.8326
219.86	14.1018
222.753	11.5206
225.646	12.9221
228.538	9.2905
231.431	11.5373
234.324	10.6698
237.217	8.10284
240.109	3.41553
243.002	4.37619
245.895	3.75705
248.787	1.21664
251.68	0.077515
254.573	1.23059
257.466	0.445923
260.358	0.575867
263.251	0.715332
266.144	4.47269
269.036	6.94388
271.929	7.96802
274.822	10.6905
277.714	12.8723
280.607	11.9841
283.5	13.3215
286.392	9.92831
289.285	10.4577
292.178	7.95218
295.071	9.83691
297.963	8.43729
300.856	6.33679
303.749	6.32642
306.641	6.88028
309.534	3.56268
312.427	4.70361
315.32	5.7648
318.212	4.32565
321.105	1.73773
323.998	0.401306
326.89	3.64874
329.783	2.57159
332.676	1.79144
335.568	0.715546
338.461	1.63965
341.354	2.44336
344.247	0.908569
347.139	0.655243
350.032	1.7576
352.925	0.281677
355.817	1.95044
358.71	1.15219
361.603	1.45129
364.495	0.180969
367.388	3.48969
370.281	2.88986
373.173	5.72192
376.066	3.2403
378.959	7.42151
381.852	7.48251
384.744	8.77313
387.637	10.1924
390.53	9.11249
393.422	10.3925
396.315	13.4286
399.208	13.7943
402.101	13.0545
404.993	13.6192
407.886	13.3384
410.779	12.4751
413.671	11.9204
416.564	12.6005
419.457	13.2923
422.349	13.4032
425.242	13.7225
428.135	13.0962
431.027	12.4139
433.92	14.9844
436.813	14.825
439.706	14.232
442.598	14.1558
445.491	14.3997
448.384	11.9869
451.276	16.2156
454.169	14.3079
457.062	15.5576
459.954	15.4299
462.847	13.1094
465.74	12.658
468.633	12.5343
471.525	10.791
474.418	11.39
477.311	11.5282
480.203	9.66284
483.096	6.4939
485.989	8.37491
488.882	6.78247
491.774	5.70869
494.667	2.85387
497.56	5.08556
500.452	5.69991
503.345	4.10786
506.238	2.77049
509.13	3.03835
512.023	2.76497
514.916	2.19174
517.808	2.44186
520.701	1.83763
523.594	3.57451
526.487	1.32893
529.379	2.37881
532.272	0.422623
535.165	3.81181
538.057	0.089813
540.95	0.143555
543.843	0.651947
546.736	1.72749
549.628	0.079544
552.521	0.021759
555.414	1.76057
558.306	2.20229
561.199	0.828171
564.092	0.000458
566.984	2.33899
569.877	1.60143
572.77	2.21144
575.663	0.28627
578.555	2.59561
581.448	2.22955
584.341	4.34853
587.233	1.72603
590.126	2.86838
593.019	2.50333
595.911	4.73759
598.804	4.90344
601.697	4.13461
604.59	4.46042
607.482	5.86031
610.375	4.03934
613.268	4.37593
616.16	5.83871
619.053	5.57692
621.946	7.34557
624.838	6.6169
627.731	8.49136
630.624	7.48244
633.516	10.5225
636.409	7.55856
639.302	10.3677
642.195	9.72403
645.087	9.36562
647.98	9.83989
650.873	7.22894
653.765	6.71509
656.658	9.0145
659.551	7.73885
662.443	7.42387
665.336	9.10324
668.229	4.61871
671.122	4.35823
674.014	3.80199
676.907	4.26244
679.8	3.91907
682.692	3.82126
685.585	2.76328
688.478	1.25099
691.37	1.64365
694.263	0.64859
697.156	0.126297
700.049	0.974686
702.941	1.59294
705.834	0.511261
708.727	0.633636
711.619	1.99323
714.512	1.65225
717.405	0.066498
720.298	0.427444
723.19	1.67877
726.083	0.146423
728.976	1.19917
731.868	0.132767
734.761	0.055222
737.654	0.555618
740.546	0.469772
743.439	1.05704
746.332	1.38603
749.225	2.321
752.117	1.74811
755.01	0.500656
757.903	0.923218
760.795	1.86238
763.688	1.91702
766.581	0.710861
769.473	1.13226
772.366	1.09015
775.259	1.18382
778.152	1.86978
781.044	1.86731
783.937	0.438461
786.83	1.04117
789.722	1.7746
792.615	1.50305
795.508	0.816208
798.4	2.85474
801.293	1.94646
804.186	0.998123
807.078	2.16386
809.971	1.80122
812.864	0.905716
815.757	4.1655
818.649	2.24768
821.542	2.34763
824.435	2.94864
827.327	2.23898
830.22	3.81271
833.113	3.63815
836.005	4.04642
838.898	4.38129
841.791	3.78149
844.683	3.19624
847.576	3.1615
850.469	3.17069
853.362	4.46788
856.254	5.09195
859.147	4.24292
862.04	2.92094
864.932	5.35947
867.825	4.19057
870.718	2.59459
873.611	4.21421
876.503	4.50809
879.396	3.72934
882.289	3.73828
885.181	3.39761
888.074	1.24116
890.967	3.05467
893.859	1.42791
896.752	2.47564
899.645	1.63902
902.538	0.256409
905.43	0.274963
908.323	1.57637
911.216	1.12694
914.108	0.917892
917.001	1.03768
919.894	0.582642
922.786	0.075302
925.679	0.144669
928.572	0.55027
931.465	1.54119
934.357	1.7962
937.25	2.28544
940.143	0.902824
943.035	1.54286
945.928	1.12864
948.821	0.721687
951.713	1.99391
954.606	1.29041
957.499	1.42212
960.391	1.5462
963.284	1.11591
966.177	0.532394
969.07	2.26948
971.962	0.963371
974.855	2.26784
977.748	1.3775
980.64	0.339859
983.533	0.796417
986.426	2.31322
989.318	0.121666
992.211	1.23114
995.104	2.04811
997.997	0.663811
1000.89	1.38728
1003.78	1.14529
1006.67	1.52889
1009.57	1.33541
1012.46	2.39619
1015.35	2.59872
1018.25	0.119453
1021.14	1.45561
1024.03	2.85559
1026.92	1.35722
1029.82	1.40514
1032.71	2.53501
1035.6	1.82101
1038.49	0.86866
1041.39	1.81926
1044.28	0.578789
1047.17	0.847107
1050.07	0.101357
1052.96	0.96225
1055.85	1.90459
1058.74	1.14742
1061.64	0.640259
1064.53	2.14085
1067.42	0.62825
1070.31	2.39278
1073.21	1.83092
1076.1	1.90552
1078.99	1.55547
1081.88	1.87803
1084.78	1.11247
1087.67	1.23496
1090.56	1.58005
1093.46	1.40984
1096.35	1.2287
1099.24	2.063
1102.13	2.38322
1105.03	0.653175
1107.92	0.343712
1110.81	1.21569
1113.7	0.484543
1116.6	1.3652
1119.49	0.438293
1122.38	1.10403
1125.28	0.176239
1128.17	0.330154
1131.06	4.69218
1133.95	1.13744
1136.85	1.31996
1139.74	1.66736
1142.63	0.963196
1145.52	0.883301
1148.42	0.501297
1151.31	0.164581
1154.2	1.99834
1157.1	0.107094
1159.99	1.55522
1162.88	1.06333
1165.77	1.23242
1168.67	1.97356
1171.56	1.79619
1174.45	1.60885
1177.34	2.68514
1180.24	1.99424
1183.13	3.20632
1186.02	2.17312
1188.91	1.66119
1191.81	3.34332
1194.7	2.18245
1197.59	3.1272
1200.49	1.06841
1203.38	2.23707
1206.27	2.06265
1209.16	3.75051
1212.06	3.09638
1214.95	1.76784
1217.84	2.70673
1220.73	2.46806
1223.63	3.88949
1226.52	3.52888
1229.41	1.65773
1232.31	2.67998
1235.2	1.15825
1238.09	2.23914
1240.98	1.82291
1243.88	1.08341
1246.77	1.51237
1249.66	2.67859
1252.55	1.2481
1255.45	0.397926
1258.34	0.188583
1261.23	0.780891
1264.12	1.57959
1267.02	1.23245
1269.91	1.46025
1272.8	0.591209
1275.7	0.761581
1278.59	2.25472
1281.48	1.21275
1284.37	1.75169
1287.27	0.397789
