Measurement: Raman, 532 nm, unoriented, Raman Data Processed
Mineral: Ludwigite
Rruff sample: R060010
Ideal chemistry: Mg_2_Fe^3+^O_2_(BO_3_)
Locality: Victoria Quarry, Riverside, California, USA
Source: University of Arizona Mineral Museum
Description: Black elongated prismatic crystals, associated with pale yellow clinohumite on white calcite matrix
Measured chemistry: (Mg_1.68_Fe^2+^_0.32_)_Σ=2_(Fe^3+^_0.74_Al_0.23_Cr_0.03_)_Σ=1_O_5_ ; B not measured but estimated by difference and charge balance
Raman shift (cm-1)	intensity
205.739	0
208.632	3.12912
211.525	11.6505
214.417	20.2934
217.31	32.2159
220.203	36.3929
223.096	39.5929
225.988	26.9093
228.881	16.0197
231.774	13.6691
234.666	13.6579
237.559	14.7854
240.452	16.7791
243.345	13.8823
246.237	8.31818
249.13	6.75299
252.023	1.84672
254.915	0.915466
257.808	0.812622
260.701	0.614594
263.593	2.39264
266.486	1.99878
269.379	0.935974
272.272	1.59309
275.164	2.66711
278.057	6.39478
280.95	9.8963
283.842	15.668
286.735	16.4299
289.628	18.0847
292.52	18.7509
295.413	19.0954
298.306	19.8289
301.199	21.7674
304.091	21.6783
306.984	17.833
309.877	14.7884
312.769	12.1576
315.662	12.2004
318.555	9.41382
321.447	8.21793
324.34	8.77445
327.233	6.89053
330.125	12.5338
333.018	11.9316
335.911	11.4776
338.804	12.6572
341.696	11.9746
344.589	12.5675
347.482	9.05565
350.374	8.9962
353.267	6.25494
356.16	1.5965
359.053	3.11098
361.945	0.062088
364.838	0.062927
367.731	0.921616
370.623	0.296738
373.516	1.50571
376.409	0.106125
379.301	0.13826
382.194	0.133911
385.087	0.706833
387.979	2.34061
390.872	3.36296
393.765	7.08084
396.658	12.8238
399.55	14.7476
402.443	15.5473
405.336	18.878
408.228	21.2793
411.121	20.0567
414.014	14.8394
416.906	12.384
419.799	11.083
422.692	9.81511
425.585	9.65924
428.477	7.73968
431.37	6.9395
434.263	7.5255
437.155	8.11865
440.048	6.96269
442.941	8.00383
445.834	10.0186
448.726	10.429
451.619	13.6732
454.512	11.3986
457.404	11.1717
460.297	9.65913
463.19	12.3578
466.082	9.45921
468.975	5.72646
471.868	6.42587
474.76	7.84671
477.653	4.68738
480.546	4.31183
483.439	3.11598
486.331	4.20013
489.224	4.06122
492.117	2.08688
495.009	2.59648
497.902	0.551376
500.795	0.436417
503.688	1.47958
506.58	0.179718
509.473	2.40817
512.365	0.508926
515.258	1.47952
518.151	1.57703
521.044	2.17508
523.936	3.40514
526.829	2.68114
529.722	3.86932
532.614	5.88844
535.507	3.201
538.4	3.79773
541.293	4.57547
544.185	2.96646
547.078	1.12797
549.971	0.393509
552.863	1.28902
555.756	2.56708
558.649	2.19347
561.541	0.285156
564.434	1.99893
567.327	0.605774
570.22	0.993973
573.112	2.63277
576.005	1.08014
578.898	1.92474
581.79	0.076767
584.683	1.32613
587.576	1.43475
590.468	2.48547
593.361	2.32892
596.254	2.63104
599.146	1.94673
602.039	0.84758
604.932	2.83386
607.825	4.49972
610.717	0.455704
613.61	2.90822
616.503	4.50717
619.395	4.15079
622.288	8.40808
625.181	7.3782
628.073	10.6942
630.966	9.20741
633.859	15.2342
636.752	14.3704
639.644	19.1387
642.537	19.6736
645.43	23.7957
648.322	23.879
651.215	26.9042
654.108	28.8761
657	30.8809
659.893	30.9099
662.786	33.188
665.679	30.0961
668.571	28.0092
671.464	24.2116
674.357	19.2158
677.25	16.1998
680.142	11.8664
683.035	9.18845
685.928	8.20811
688.82	5.20755
691.713	4.81028
694.606	5.47725
697.498	3.48586
700.391	2.5192
703.284	2.49611
706.177	1.28798
709.069	2.75909
711.962	1.88711
714.855	1.50505
717.747	1.68998
720.64	0.201134
723.533	1.2019
726.425	0.277992
729.318	0.337791
732.211	0.16256
735.103	0.621994
737.996	0.184319
740.889	0.736015
743.782	0.1381
746.674	1.36079
749.567	0.346451
752.46	0.143356
755.352	1.62206
758.245	0.350212
761.138	1.78734
764.03	2.63448
766.923	4.22071
769.816	2.55154
772.708	3.88581
775.601	4.95998
778.494	2.96157
781.387	3.2305
784.279	2.44783
787.172	3.13731
790.065	0.537018
792.957	3.82645
795.85	4.53001
798.743	0.707901
801.635	2.25981
804.528	2.46988
807.421	1.27332
810.314	1.69675
813.206	2.78506
816.099	2.26321
818.992	3.45219
821.884	1.94283
824.777	3.9469
827.67	3.03891
830.562	1.89573
833.455	2.12588
836.348	1.80025
839.241	3.2933
842.133	2.22382
845.026	1.89328
847.919	4.02943
850.811	3.41495
853.704	0.742508
856.597	2.82623
859.49	2.75191
862.382	1.77899
865.275	3.47063
868.168	2.33006
871.06	3.25986
873.953	2.18314
876.846	4.12162
879.738	2.77178
882.631	1.70894
885.524	2.65082
888.417	2.43764
891.309	0.909096
894.202	2.62241
897.095	0.609085
899.987	0.924377
902.88	0.666969
905.773	1.57313
908.665	0.731155
911.558	2.54802
914.451	1.4267
917.343	0.828964
920.236	1.3709
923.129	1.32237
926.022	0.850784
928.914	0.931305
931.807	1.45285
934.7	1.79604
937.592	3.5109
940.485	2.65593
943.378	5.27007
946.27	3.69625
949.163	6.60479
952.056	4.93102
954.949	4.34505
957.841	3.67939
960.734	0.845589
963.627	3.02255
966.519	1.89758
969.412	1.39706
972.305	0.732399
975.197	1.93355
978.09	0.169395
980.983	0.811203
983.875	2.53571
986.768	1.14149
989.661	0.151962
992.554	1.21647
995.446	1.82162
998.339	0.465271
1001.23	1.2627
1004.12	1.96214
1007.02	2.95575
1009.91	2.04034
1012.8	0.792183
1015.7	2.40768
1018.59	1.53396
1021.48	3.68338
1024.37	3.12651
1027.27	2.52378
1030.16	3.1746
1033.05	2.93059
1035.94	1.73305
1038.84	2.40089
1041.73	3.88824
1044.62	3.04607
1047.52	3.20083
1050.41	2.54224
1053.3	3.42371
1056.19	2.12785
1059.09	0.862198
1061.98	0.299118
1064.87	1.12058
1067.76	0.542389
1070.66	0.114723
1073.55	0.797386
1076.44	0.094254
1079.34	2.64418
1082.23	2.14705
1085.12	4.4071
1088.01	1.92984
1090.9	1.48403
1093.8	1.61782
1096.69	0.694794
1099.58	2.27596
1102.48	2.97277
1105.37	2.26929
1108.26	2.10352
1111.15	1.2336
1114.05	3.62481
1116.94	2.28484
1119.83	0.248604
1122.72	1.75993
1125.62	0.73497
1128.51	2.91715
1131.4	0.398659
1134.3	2.56057
1137.19	0.812065
1140.08	1.61474
1142.97	2.69495
1145.87	1.95907
1148.76	2.10954
1151.65	1.48291
1154.55	0.082092
1157.44	1.0434
1160.33	1.3302
1163.22	0.033432
1166.12	1.45792
1169.01	0.46711
1171.9	1.18079
1174.79	2.5548
1177.69	3.1432
1180.58	1.91605
1183.47	3.68971
1186.37	1.70365
1189.26	3.00946
1192.15	2.40248
1195.04	3.07583
1197.93	2.13547
1200.83	4.06918
1203.72	2.3095
1206.61	3.04036
1209.51	3.11107
1212.4	3.67708
1215.29	3.35407
1218.18	3.73599
1221.08	2.11636
1223.97	5.59039
1226.86	4.09988
1229.76	2.68867
1232.65	3.91655
1235.54	2.5158
1238.43	3.86903
1241.33	2.99744
1244.22	1.2131
1247.11	3.40372
1250	1.58946
1252.9	0.039169
1255.79	0.977753
1258.68	0.781052
1261.58	1.06226
1264.47	2.16238
1267.36	2.34227
1270.25	1.0332
1273.15	1.07698
1276.04	3.45558
1278.93	1.76359
1281.82	2.86268
1284.72	1.27924
1287.61	3.17142
1290.5	1.26596
1293.39	2.73795
1296.29	2.48882
1299.18	0.356026
1302.07	1.8343
1304.96	0
