Measurement: Raman, 780 nm, unoriented, Raman Data Processed
Mineral: Luzonite
Rruff sample: R060390
Ideal chemistry: Cu_3_AsS^2-^_4_
Locality: Bern-Shan Pit, Chinkuashi mine, Taipei, Taiwan, Republic of China
Source: Michael Scott
Description: Black coarse massive with two directions of obvious cleavage
Measured chemistry: Cu_3.01_(As_0.85_Sb_0.15_)_Î£=1.00_S_4_
Raman shift (cm-1)	intensity
91.5332	0
94.908	6.62313
98.2828	6.99244
101.658	5.32739
105.032	5.44864
108.407	3.15482
111.782	1.84941
115.157	4.29197
118.532	2.65033
121.907	5.15332
125.281	4.43087
128.656	4.1592
132.031	3.73908
135.406	6.73757
138.781	6.91351
142.155	6.02362
145.53	2.7071
148.905	2.37025
152.28	6.46682
155.655	3.8321
159.03	9.2153
162.404	5.29744
165.779	5.78721
169.154	5.46308
172.529	1.56846
175.904	6.77447
179.278	4.92407
182.653	4.84236
186.028	0.843994
189.403	12.9306
192.778	2.16112
196.153	6.32354
199.527	5.5497
202.902	4.05637
206.277	1.98638
209.652	0.634277
213.027	0.436855
216.401	1.80932
219.776	5.00207
223.151	0.524828
226.526	1.31943
229.901	2.23724
233.275	1.86543
236.65	3.76433
240.025	2.69636
243.4	4.32458
246.775	6.47968
250.15	2.33777
253.524	4.05711
256.899	5.08215
260.274	5.50019
263.649	1.6768
267.024	4.78317
270.399	2.44136
273.773	2.11129
277.148	2.31246
280.523	1.94729
283.898	6.21618
287.273	1.34708
290.647	2.90614
294.022	6.55578
297.397	8.46188
300.772	14.577
304.147	19.5361
307.522	24.8864
310.896	27.5904
314.271	33.1499
317.646	28.6639
321.021	28.9351
324.396	16.4957
327.77	5.01274
331.145	3.55077
334.52	1.57653
337.895	0.148256
341.27	2.76744
344.644	0.922325
348.019	3.51254
351.394	1.16782
354.769	1.26427
358.144	2.42865
361.519	2.71365
364.893	4.11975
368.268	5.70676
371.643	0.515137
375.018	5.25928
378.393	3.83113
381.767	3.4242
385.142	1.04892
388.517	0.844997
391.892	3.56851
395.267	2.33038
398.642	1.83915
402.016	1.40475
405.391	5.51438
408.766	5.69798
412.141	3.0755
415.516	1.30263
418.89	1.73607
422.265	0.703642
425.64	0.388571
429.015	2.74158
432.39	4.51978
435.765	4.7692
439.139	6.17291
442.514	2.91823
445.889	5.43525
449.264	3.66927
452.639	4.3959
456.014	4.3547
459.388	4.72047
462.763	5.3548
466.138	2.44889
469.513	5.0672
472.887	0.45966
476.262	3.61132
479.637	1.65545
483.012	4.28829
486.387	2.52247
489.762	2.85425
493.136	3.81586
496.511	3.07633
499.886	4.81124
503.261	3.85537
506.636	0.501678
510.01	3.03968
513.385	6.03013
516.76	2.74658
520.135	2.80811
523.51	1.88517
526.885	0.964632
530.259	2.5799
533.634	2.53298
537.009	5.59329
540.384	3.26798
543.759	3.08114
547.134	0.020021
550.508	5.54713
553.883	3.06685
557.258	2.29756
560.633	0.528629
564.008	2.95855
567.382	3.64235
570.757	1.68546
574.132	2.29851
577.507	5.28068
580.882	1.22461
584.256	4.4339
587.631	0.037367
591.006	3.5058
594.381	4.29098
597.756	5.36718
601.131	1.73646
604.505	5.69404
607.88	4.79296
611.255	2.76291
614.63	5.13331
618.005	3.11496
621.38	5.13149
624.754	5.50323
628.129	5.98004
631.504	5.46418
634.879	3.83645
638.254	3.94368
641.628	3.13803
645.003	2.291
648.378	3.46314
651.753	2.60219
655.128	3.55897
658.503	2.60552
661.877	1.31392
665.252	0.088724
668.627	2.80513
672.002	3.09594
675.377	3.24395
678.751	3.4984
682.126	2.83799
685.501	2.40258
688.876	4.82162
692.251	2.41215
695.625	2.93986
699	2.09287
702.375	1.97346
705.75	6.44361
709.125	5.20113
712.5	0.742886
715.874	4.77899
719.249	1.95995
722.624	3.1166
725.999	4.04381
729.374	0.994322
732.749	1.97105
736.123	3.15354
739.498	3.13909
742.873	3.34558
746.248	1.21993
749.623	0.488134
752.997	2.81599
756.372	1.74498
759.747	1.01322
763.122	1.75434
766.497	3.89067
769.871	1.35932
773.246	1.37916
776.621	0.035776
779.996	2.26994
783.371	4.18103
786.745	4.06387
790.12	3.52287
793.495	1.11663
796.87	3.43198
800.245	6.84119
803.62	5.85786
806.994	5.88812
810.369	0.426455
813.744	3.93478
817.119	2.54685
820.494	3.98741
823.869	3.35129
827.243	2.88253
830.618	2.93273
833.993	4.00796
837.368	0.890474
840.743	0.622112
844.117	2.44691
847.492	1.58646
850.867	0.907001
854.242	4.31705
857.617	3.83782
860.991	4.36696
864.366	4.60571
867.741	3.48544
871.116	2.92622
874.491	3.52727
877.866	0.329052
881.24	1.43103
884.615	1.09054
887.99	1.42229
891.365	1.66162
894.74	0.152855
898.115	4.88876
901.489	1.90449
904.864	0.401501
908.239	1.70268
911.614	2.73289
914.989	4.6073
918.363	2.51332
921.738	3.81547
925.113	1.52231
928.488	3.39122
931.863	2.68661
935.237	3.24736
938.612	3.33317
941.987	1.04884
945.362	3.25664
948.737	5.33446
952.112	4.97129
955.486	4.9442
958.861	2.86073
962.236	2.48624
965.611	1.74086
968.986	3.66985
972.361	3.57698
975.735	3.01211
979.11	2.38162
982.485	3.6488
985.86	4.84772
989.235	1.39273
992.609	3.58081
995.984	2.02115
999.359	4.81422
1002.73	0.983315
1006.11	2.04142
1009.48	3.44921
1012.86	1.52143
1016.23	6.7771
1019.61	1.51417
1022.98	2.25883
1026.36	4.9548
1029.73	0.08847
1033.11	1.78797
1036.48	2.71564
1039.86	0.639595
1043.23	1.06196
1046.61	2.37969
1049.98	3.55917
1053.36	3.49595
1056.73	1.51721
1060.11	2.35511
1063.48	5.19884
1066.86	0.679993
1070.23	3.57813
1073.61	0.449945
1076.98	2.66259
1080.36	1.00282
1083.73	5.09843
1087.1	2.72111
1090.48	0.864687
1093.85	0.434649
1097.23	4.43201
1100.6	4.18333
1103.98	0.798294
1107.35	1.46548
1110.73	0.302748
1114.1	1.99198
1117.48	2.62223
1120.85	1.06527
1124.23	1.34517
1127.6	0.150061
1130.98	2.04077
1134.35	3.14584
1137.73	3.60643
1141.1	0.7146
1144.48	5.61139
1147.85	4.9363
1151.23	5.32011
1154.6	2.95032
1157.97	0.387585
1161.35	1.65162
1164.72	0.11939
1168.1	2.86763
1171.47	0.878801
1174.85	5.95775
1178.22	1.7009
1181.6	2.09089
1184.97	4.47003
1188.35	2.48853
1191.72	7.72835
1195.1	2.22351
1198.47	0.594048
1201.85	3.28541
1205.22	1.99007
1208.6	1.07166
1211.97	5.06083
1215.35	1.40274
1218.72	4.94032
1222.1	1.80294
1225.47	0.152925
1228.85	2.40152
1232.22	2.07632
1235.6	2.635
1238.97	1.77233
1242.35	1.52306
1245.72	0.877552
1249.1	0.337414
1252.47	3.57417
1255.85	2.78373
1259.22	0.79921
1262.6	0.37351
1265.97	1.20738
1269.34	1.9184
1272.72	4.08653
1276.09	4.94704
1279.47	2.61918
1282.84	2.79691
