Measurement: Raman, 785 nm, unoriented, Raman Data Processed
Mineral: Mackinawite
Rruff sample: R070302
Ideal chemistry: (Fe,Ni)_1-1.07_S
Locality: Wannaway Prospect, near Kalgoorlie, Western Australia, Australia
Source: James Shigley
Description: Bronze metallic massive, drill core
Raman shift (cm-1)	intensity
166.338	0
169.231	3.50623
172.124	7.21466
175.017	0.964127
177.909	1.24466
180.802	1.94144
183.695	6.36493
186.587	12.1233
189.48	29.337
192.373	10.5012
195.265	24.7108
198.158	13.3101
201.051	16.7537
203.944	20.6042
206.836	13.9568
209.729	12.5428
212.622	3.79924
215.514	11.6039
218.407	3.86717
221.3	6.60793
224.192	0.027618
227.085	8.03462
229.978	2.65466
232.87	5.42733
235.763	12.6673
238.656	2.50007
241.549	14.1173
244.441	16.8528
247.334	9.9871
250.227	11.4509
253.119	24.7216
256.012	18.294
258.905	18.9012
261.798	19.52
264.69	15.515
267.583	13.1259
270.476	13.0662
273.368	14.8248
276.261	16.8806
279.154	13.2752
282.046	12.2092
284.939	8.78558
287.832	2.31889
290.724	5.72865
293.617	14.7852
296.51	9.00659
299.403	8.02792
302.295	16.2574
305.188	10.9028
308.081	14.4151
310.973	17.728
313.866	9.71119
316.759	13.8512
319.651	10.7108
322.544	1.01902
325.437	4.2639
328.33	0.534142
331.222	0.686943
334.115	4.43081
337.008	12.0627
339.9	9.82538
342.793	10.1507
345.686	15.1207
348.579	13.0887
351.471	13.6016
354.364	11.0633
357.257	15.7463
360.149	24.4795
363.042	22.4974
365.935	23.9964
368.827	23.7723
371.72	25.8226
374.613	22.2294
377.505	30.5467
380.398	17.5149
383.291	10.1989
386.184	22.1514
389.076	12.8502
391.969	5.57706
394.862	5.13559
397.754	12.0714
400.647	0.454758
403.54	2.50512
406.433	11.9051
409.325	4.12793
412.218	6.37198
415.111	5.64029
418.003	8.0101
420.896	0.306652
423.789	3.57737
426.681	2.57261
429.574	3.53437
432.467	3.60244
435.36	3.02067
438.252	1.04032
441.145	0.253174
444.038	1.95083
446.93	3.60931
449.823	4.54326
452.716	2.7054
455.608	11.093
458.501	8.80853
461.394	7.33712
464.286	10.3248
467.179	0.691322
470.072	11.1123
472.965	7.54187
475.857	3.24544
478.75	7.13643
481.643	15.0306
484.535	5.28907
487.428	6.80425
490.321	11.4206
493.214	8.7926
496.106	14.3735
498.999	6.73865
501.892	9.63285
504.784	13.3003
507.677	5.23488
510.57	7.9093
513.462	3.28855
516.355	4.49418
519.248	3.01267
522.14	5.24222
525.033	6.64663
527.926	4.71607
530.819	7.46143
533.711	6.58685
536.604	6.03735
539.497	10.9592
542.389	10.3541
545.282	10.0649
548.175	7.07016
551.067	6.80481
553.96	6.95086
556.853	3.67069
559.746	3.71536
562.638	10.0071
565.531	1.74476
568.424	7.607
571.316	5.06797
574.209	6.23807
577.102	3.75445
579.995	5.57401
582.887	6.27865
585.78	2.9154
588.673	5.99383
591.565	7.8357
594.458	4.53691
597.351	1.0665
600.243	12.3144
603.136	2.29654
606.029	2.77007
608.922	5.17604
611.814	6.62943
614.707	3.67858
617.6	6.90524
620.492	3.3124
623.385	3.50161
626.278	5.69065
629.17	1.55318
632.063	4.07249
634.956	0.433872
637.848	6.21135
640.741	1.36122
643.634	6.16963
646.527	10.2922
649.419	3.80858
652.312	1.67651
655.205	10.1407
658.097	6.85669
660.99	4.20686
663.883	0.922222
666.775	6.16768
669.668	9.08059
672.561	6.50749
675.454	8.2905
678.346	8.92523
681.239	5.88646
684.132	13.5667
687.024	7.97914
689.917	7.116
692.81	9.85409
695.702	7.6059
698.595	2.09952
701.488	4.46959
704.381	4.37509
707.273	2.5283
710.166	9.57522
713.059	3.87777
715.951	3.34085
718.844	3.49319
721.737	5.13511
724.63	3.72737
727.522	2.02471
730.415	1.01172
733.308	3.78225
736.2	8.91516
739.093	6.18902
741.986	6.99355
744.878	3.53002
747.771	10.1886
750.664	2.31916
753.557	4.2203
756.449	3.77625
759.342	5.53367
762.235	2.52312
765.127	3.64457
768.02	5.17909
770.913	8.33219
773.805	2.10818
776.698	7.66398
779.591	6.71072
782.484	0.723217
785.376	6.51719
788.269	12.4109
791.162	4.92988
794.054	9.96982
796.947	5.0485
799.84	7.17476
802.732	11.6725
805.625	4.96339
808.518	1.1922
811.41	6.76798
814.303	4.09143
817.196	6.72827
820.089	4.98771
822.981	10.7332
825.874	3.6886
828.767	8.80551
831.659	8.31067
834.552	11.3633
837.445	7.39813
840.337	5.54988
843.23	7.99301
846.123	0.150932
849.016	6.84948
851.908	5.10269
854.801	7.13235
857.694	7.99512
860.586	8.29172
863.479	9.8913
866.372	5.33047
869.264	8.38044
872.157	17.9799
875.05	1.72244
877.943	8.38303
880.835	16.3853
883.728	9.17524
886.621	1.99179
889.513	5.4958
892.406	1.12236
895.299	8.41228
898.192	2.93653
901.084	10.7742
903.977	1.85094
906.87	15.4389
909.762	3.86355
912.655	3.46168
915.548	6.88416
918.44	4.27427
921.333	10.5167
924.226	8.54335
927.119	7.99237
930.011	1.34442
932.904	5.9719
935.797	10.7132
938.689	4.3972
941.582	5.00033
944.475	5.03399
947.367	2.25303
950.26	5.26881
953.153	6.8507
956.045	8.16137
958.938	10.5382
961.831	3.7296
964.724	7.32886
967.616	3.37644
970.509	1.57354
973.402	4.43723
976.294	15.8855
979.187	0.393143
982.08	4.54727
984.972	9.56603
987.865	6.48763
990.758	3.49464
993.651	9.98908
996.543	12.4026
999.436	6.33416
1002.33	7.70027
1005.22	14.235
1008.11	5.22979
1011.01	14.7861
1013.9	3.22879
1016.79	6.48722
1019.68	4.31237
1022.58	7.53765
1025.47	9.4747
1028.36	2.60652
1031.26	0.280533
1034.15	0.693573
1037.04	8.64936
1039.93	7.98103
1042.83	7.10841
1045.72	4.59484
1048.61	6.85267
1051.51	2.45575
1054.4	4.01989
1057.29	11.0763
1060.18	2.42526
1063.08	5.97897
1065.97	4.25074
1068.86	10.8705
1071.75	11.5686
1074.65	0.549282
1077.54	1.54602
1080.43	8.1654
1083.32	2.83493
1086.22	2.40288
1089.11	5.53899
1092	4.97611
1094.89	6.06485
1097.79	6.90013
1100.68	1.0115
1103.57	9.53168
1106.47	3.75705
1109.36	1.99128
1112.25	9.31944
1115.14	4.67962
1118.04	10.4773
1120.93	5.65775
1123.82	3.80778
1126.71	2.45647
1129.61	6.34688
1132.5	8.00867
1135.39	6.15264
1138.29	9.1891
1141.18	6.14199
1144.07	4.35102
1146.96	16.3711
1149.86	1.81669
1152.75	2.80617
1155.64	3.5465
1158.54	9.12178
1161.43	12.8292
1164.32	14.7663
1167.21	9.08394
1170.11	14.8299
1173	8.31225
1175.89	7.61
1178.78	3.71316
1181.68	15.4177
1184.57	7.09061
1187.46	10.8448
1190.35	11.5338
1193.25	3.47678
1196.14	14.5471
1199.03	14.7
1201.92	6.4533
1204.82	10.1681
1207.71	4.77645
1210.6	12.7991
1213.5	8.38011
1216.39	14.9816
1219.28	10.2837
1222.17	7.93068
1225.07	8.93304
1227.96	11.1923
1230.85	0.140076
1233.74	1.12387
