Measurement: Raman, 780 nm, unoriented, Raman Data Processed
Mineral: Magadiite
Rruff sample: R060994
Ideal chemistry: Na_2_Si_14_O_29_11H_2_O
Locality: Trinity Lake, Trinity County, California, USA
Source: Bob Jenkins
Description: White compacted fine-grained silt
Raman shift (cm-1)	intensity
125.308	0
128.683	8.9707
132.058	10.334
135.433	3.80273
138.807	23.8105
142.182	117.828
145.557	157.799
148.932	148.965
152.307	144.316
155.681	200.478
159.056	204.406
162.431	190.541
165.806	176.699
169.181	171.141
172.555	145.193
175.93	162.709
179.305	156.353
182.68	164.025
186.055	186.674
189.43	164.836
192.804	221.184
196.179	243.994
199.554	243.148
202.929	206.758
206.304	217.289
209.678	113.836
213.053	63.1797
216.428	52.5879
219.803	15.6484
223.178	30.7441
226.553	56.1113
229.927	26.1777
233.302	17.4473
236.677	9.75977
240.052	49.9668
243.427	26.666
246.801	77.6758
250.176	50.9277
253.551	8.19141
256.926	32.3652
260.301	56.9492
263.675	71.4121
267.05	48.9492
270.425	82.209
273.8	111.045
277.175	149.299
280.55	115.18
283.924	131.773
287.299	118.529
290.674	121.594
294.049	117.523
297.424	97
300.798	79.4922
304.173	24.4297
307.548	8.76562
310.923	1.16016
314.298	66.3086
317.673	48.3828
321.047	54.7832
324.422	20.5605
327.797	11.5117
331.172	6.31055
334.547	45.2754
337.921	57.8613
341.296	79.207
344.671	59.25
348.046	53.4492
351.421	2.10938
354.796	9.60742
358.17	19.1211
361.545	4.85938
364.92	16.375
368.295	27.0684
371.67	14.0176
375.044	4.55859
378.419	16.2988
381.794	8.67383
385.169	15.1172
388.544	23.6113
391.918	15.4883
395.293	14.1855
398.668	1.83203
402.043	41.7188
405.418	77.3906
408.793	31.8418
412.167	35.6895
415.542	17.7539
418.917	42.0938
422.292	106.434
425.667	128.357
429.041	131.203
432.416	86.0488
435.791	93.7109
439.166	61.8535
442.541	96.5449
445.915	76.1211
449.29	87.9121
452.665	124.228
456.04	176.404
459.415	181.553
462.789	158.459
466.164	180.613
469.539	226.205
472.914	242.19
476.289	196.932
479.664	206.106
483.038	207.301
486.413	199.684
489.788	168.857
493.163	194.315
496.538	180.807
499.913	188.992
503.287	240.596
506.662	284.062
510.037	420.428
513.412	443.822
516.787	380.603
520.161	284.906
523.536	134.82
526.911	98.8516
530.286	53.9258
533.661	18.543
537.035	28.625
540.41	27.3066
543.785	13.543
547.16	1.53906
550.535	4.31836
553.909	1.12305
557.284	13.5039
560.659	2.78906
564.034	2.78906
567.409	21.9785
570.784	56.1836
574.158	96.3027
577.533	54.6758
580.908	64.3184
584.283	29.7246
587.658	8.72266
591.033	48.4297
594.407	25.0918
597.782	100.367
601.157	82.707
604.532	56.3418
607.907	43.7852
611.281	40.7559
614.656	43.8516
618.031	29.2832
621.406	33.3145
624.781	30.5215
628.155	13.625
631.53	27.2148
634.905	71.3301
638.28	27.9902
641.655	47.0645
645.029	62.0332
648.404	37.6055
651.779	10.748
655.154	10.6387
658.529	39.3555
661.904	24.252
665.278	6.51562
668.653	18.041
672.028	24.5645
675.403	41.6387
678.778	21.4668
682.153	13.0215
685.527	31.8691
688.902	33.5332
692.277	112.324
695.652	99.7207
699.027	114.723
702.401	160.853
705.776	214.164
709.151	251.758
712.526	253.389
715.901	210.758
719.275	137.049
722.65	91.1269
726.025	94.4922
729.4	29.6914
732.775	51.7422
736.149	87.8027
739.524	60.168
742.899	34.1367
746.274	10.8066
749.649	7.95508
753.024	58.6152
756.398	43.9395
759.773	0.216797
763.148	9.88867
766.523	0.742188
769.898	13.0137
773.273	40.9414
776.647	66.5527
780.022	32.625
783.397	61.3398
786.772	57.2363
790.146	55.3496
793.521	83.7461
796.896	78.0332
800.271	72.9473
803.646	63.875
807.021	97.4434
810.395	85.2871
813.77	41.9805
817.145	61.3418
820.52	81.0606
823.895	91.1875
827.269	79.7773
830.644	70.3203
834.019	37.4922
837.394	40.543
840.769	67.8027
844.144	58.1797
847.518	91.7871
850.893	78.416
854.268	56.9824
857.643	27.7715
861.018	11.082
864.393	52.127
867.767	12.4082
871.142	24.123
874.517	12.8926
877.892	16.3125
881.266	8.90039
884.641	52.584
888.016	7.95019
891.391	24.5166
894.766	24.6807
898.141	2.64648
901.515	30.0371
904.89	26.4814
908.265	36.6094
911.64	44.9853
915.015	32.2988
918.389	15.2256
921.764	26.1396
925.139	57.1973
928.514	32.1777
931.889	40.6865
935.264	16.2568
938.638	47.6025
942.013	43.498
945.388	13.3633
948.763	5.22949
952.138	3.10644
955.512	50.8955
958.887	13.6904
962.262	10.4062
965.637	25.585
969.012	24.8877
972.386	1.22656
975.761	17.4443
979.136	5.16113
982.511	21.3809
985.886	10.9697
989.261	65.4092
992.635	25.1533
996.01	55.085
999.385	46.0869
1002.76	53.9248
1006.13	41.4697
1009.51	70.1397
1012.88	48.5371
1016.26	43.585
1019.63	50.3574
1023.01	55.7246
1026.38	39.1738
1029.76	42.8125
1033.13	34.083
1036.51	58.8594
1039.88	53.1963
1043.26	53.207
1046.63	31.3076
1050.01	43.915
1053.38	38.1631
1056.76	49.7871
1060.13	43.5029
1063.51	66.4639
1066.88	64.5898
1070.26	8.89648
1073.63	30.3955
1077.01	31.3867
1080.38	45.5635
1083.76	31.0137
1087.13	78.5449
1090.51	37.8848
1093.88	19.3652
1097.26	12.8408
1100.63	11.1016
1104	16.4238
1107.38	23.2412
1110.75	43.6982
1114.13	15.8496
1117.5	14.2236
1120.88	1.47461
1124.25	3.72461
1127.63	16.7061
1131	23.25
1134.38	57.9805
1137.75	38.0986
1141.13	61.3975
1144.5	30.8945
1147.88	47.4697
1151.25	57.5147
1154.63	60.2598
1158	68.4824
1161.38	76.4482
1164.75	73.2549
1168.13	60.8467
1171.5	115.942
1174.88	103.696
1178.25	95.6397
1181.62	109.165
1185	99.6768
1188.38	71.5713
1191.75	86.1973
1195.12	97.6904
1198.5	107.179
1201.87	115.537
1205.25	76.8955
1208.62	76.3936
1212	86.3008
1215.37	46.7451
1218.75	9.63379
1222.12	20.042
1225.5	16.7715
1228.87	49.6484
1232.25	49.5615
1235.62	52.5693
1239	22.0908
1242.37	32.2119
1245.75	67.5293
1249.12	28.1719
1252.5	59.5107
1255.87	42.124
1259.25	39.7598
1262.62	46.8418
1265.99	44.1768
1269.37	18.8359
1272.74	2.55469
1276.12	0.21875
1279.49	12.3213
1282.87	6.96777
