Measurement: Raman, 532 nm, unoriented, Raman Data Processed
Mineral: Magadiite
Rruff sample: R060994
Ideal chemistry: Na_2_Si_14_O_29_11H_2_O
Locality: Trinity Lake, Trinity County, California, USA
Source: Bob Jenkins
Description: White compacted fine-grained silt
Raman shift (cm-1)	intensity
147.075	0
149.968	549.656
152.861	218.938
155.753	131.273
158.646	1368.63
161.539	3394.25
164.431	5042.82
167.324	5231.55
170.217	4600.96
173.109	4011.4
176.002	4464.78
178.895	4715.96
181.788	5133.99
184.68	5763.38
187.573	6413.17
190.466	6424.8
193.358	5759.12
196.251	5079.2
199.144	5100.39
202.036	4845.69
204.929	5269.19
207.822	5549.02
210.714	4604.05
213.607	4065.17
216.5	4022.73
219.393	4065.89
222.285	3911.16
225.178	2906.42
228.071	3307.53
230.963	3425.92
233.856	3050.09
236.749	2701.91
239.642	2755.28
242.534	2687.7
245.427	3185.33
248.32	3429.23
251.212	2778.73
254.105	1897.97
256.998	1284.92
259.89	1838.09
262.783	2576.3
265.676	2392.66
268.568	1740.73
271.461	1520.5
274.354	1244.33
277.247	1272.7
280.139	1691.42
283.032	1707.58
285.925	1466.58
288.817	982.688
291.71	877.672
294.603	69.5938
297.495	347.312
300.388	261.672
303.281	821.672
306.174	1518.69
309.066	1704.12
311.959	922.266
314.852	217.641
317.744	114.156
320.637	39.3281
323.53	69.125
326.422	663.5
329.315	715.672
332.208	599.688
335.101	650.328
337.993	521.344
340.886	704.047
343.779	237.156
346.671	48.4531
349.564	332.156
352.457	1397.77
355.349	765.906
358.242	149.641
361.135	80.25
364.027	42.2031
366.92	182.906
369.813	79.1562
372.706	109.062
375.598	487.703
378.491	509.844
381.384	137.891
384.276	216
387.169	1275.55
390.062	1765.64
392.954	1156
395.847	1089.69
398.74	756.109
401.633	1059.38
404.525	953.047
407.418	745.719
410.311	1002.38
413.203	1187.22
416.096	1916.83
418.989	2293.02
421.881	1852.7
424.774	1477.77
427.667	1022.89
430.56	1203.81
433.452	1053.72
436.345	995.219
439.238	916.203
442.13	1073.48
445.023	1457.14
447.916	976.297
450.808	1180.14
453.701	1264.89
456.594	988.594
459.486	614.859
462.379	375.312
465.272	879.047
468.165	964.125
471.057	1339.48
473.95	1466.78
476.843	548.734
479.735	310.594
482.628	433.359
485.521	1709.73
488.413	1838.55
491.306	886.328
494.199	64.0781
497.092	127.766
499.984	177.609
502.877	146.797
505.77	15.1875
508.662	761.328
511.555	571.531
514.448	920.234
517.341	1224.2
520.233	1468.59
523.126	1882.95
526.019	1551.88
528.911	1605.72
531.804	1108.38
534.697	266.141
537.589	78.2969
540.482	20.8906
543.375	1028.16
546.267	1114.36
549.16	1104.91
552.053	470.812
554.946	28.8438
557.838	256.688
560.731	41.9375
563.624	98.7188
566.516	685.297
569.409	1369.5
572.302	806.672
575.194	581.891
578.087	142.625
580.98	140.828
583.872	203.953
586.765	842.062
589.658	805.891
592.551	737.312
595.443	1061.81
598.336	1393.34
601.229	1832.88
604.121	2801.47
607.014	3879
609.907	4653.06
612.799	4919.31
615.692	5287.12
618.585	5987.81
621.477	6569
624.37	7007.5
627.263	6691.88
630.156	5848.34
633.048	4383.97
635.941	4644.47
638.834	3458.78
641.726	3104.38
644.619	2578.53
647.512	3395.75
650.404	4401.62
653.297	4234.75
656.19	4072.84
659.083	2973.94
661.975	2143.34
664.868	1761.38
667.761	1495.25
670.653	2532.47
673.546	1507.31
676.439	303.375
679.332	278.156
682.224	456.281
685.117	1687.09
688.01	1227
690.902	1757.28
693.795	1511.69
696.688	1584.62
699.58	437.25
702.473	419.062
705.366	48.0625
708.259	247.906
711.151	331.438
714.044	196.938
716.937	325.125
719.829	248.125
722.722	629.656
725.615	59.8438
728.507	489.625
731.4	320.719
734.293	129.781
737.185	665.688
740.078	7.03125
742.971	527.281
745.864	1935.62
748.756	2528.66
751.649	1693.75
754.542	1423.28
757.434	1976.66
760.327	746.312
763.22	581.594
766.112	1153.41
769.005	2722.81
771.898	3852
774.79	3076.19
777.683	2945.66
780.576	3292.47
783.469	3529.5
786.361	4180.69
789.254	4612.88
792.147	6134.06
795.039	6525.03
797.932	6855.94
800.825	6520.81
803.717	6715.66
806.61	6944.22
809.503	7293.41
812.396	7598.66
815.288	8350.44
818.181	8405.47
821.074	8529.69
823.966	9295.06
826.859	9612.94
829.752	10413.8
832.644	9633.12
835.537	8838.03
838.43	7938.97
841.323	7358.03
844.215	6097.81
847.108	4629.56
850.001	2844.5
852.893	1249.59
855.786	759.031
858.679	1115.56
861.571	1238.94
864.464	1558.62
867.357	581.031
870.25	315.875
873.142	115.781
876.035	205.281
878.928	330.688
881.82	743.875
884.713	518.469
887.606	1141.47
890.498	1687.94
893.391	3248.41
896.284	3752.56
899.177	2903.47
902.069	1301.28
904.962	715.188
907.855	633.062
910.747	331.156
913.64	412.594
916.533	172.656
919.425	140.281
922.318	1123.06
925.211	2918.69
928.104	3683.72
930.996	3005.41
933.889	1520.44
936.782	1734
939.674	1789.28
942.567	1058.5
945.46	665.719
948.352	0.6875
951.245	191.344
954.138	549.406
957.03	426.125
959.923	313.844
962.816	932.688
965.709	484.281
968.601	227.531
971.494	335.188
974.387	443.219
977.279	1087.38
980.172	1231.22
983.065	1006.38
985.957	49
988.85	195.375
991.743	96.6875
994.635	407.562
997.528	563.781
1000.42	1066.78
1003.31	1311.91
1006.21	1611.59
1009.1	1361.19
1011.99	671.625
1014.88	777.406
1017.78	846.844
1020.67	523.875
1023.56	1808.56
1026.45	1863.66
1029.35	1837.19
1032.24	1698.06
1035.13	1406.69
1038.03	2394.69
1040.92	2273.25
1043.81	1415.59
1046.7	747
1049.6	665.906
1052.49	1566.88
1055.38	2710.88
1058.28	2365.53
1061.17	2199
1064.06	697.219
1066.95	453
1069.85	834.656
1072.74	1522.34
1075.63	920.094
1078.52	222.75
1081.42	274.781
1084.31	704.594
1087.2	1784.16
1090.09	1508.62
1092.99	1632.72
1095.88	2525.94
1098.77	2506.91
1101.66	2454.38
1104.56	2655.69
1107.45	2878.72
1110.34	1492.59
1113.24	1151.12
1116.13	960.156
1119.02	634.469
1121.91	428.5
1124.81	274.094
1127.7	1950.06
1130.59	3319.66
1133.48	3039.75
1136.38	1913.03
1139.27	1532.22
1142.16	2038.94
1145.06	773.562
1147.95	60.0312
1150.84	877.062
1153.73	1663.56
1156.63	1819.97
1159.52	1931.44
1162.41	1580.31
1165.31	492.094
1168.2	277.375
1171.09	655.562
1173.98	2039.94
1176.88	2246.53
1179.77	1594.06
1182.66	3000.62
1185.55	2803.09
1188.45	1568.94
1191.34	1061.91
1194.23	560.156
1197.12	623.25
1200.02	718.469
1202.91	1050
1205.8	1021.78
1208.69	1534.94
1211.59	2155.28
1214.48	1674.47
1217.37	1627.75
1220.27	912.406
1223.16	471.938
1226.05	1434.91
1228.94	1641.97
1231.84	1843.88
1234.73	2258.84
1237.62	3132.56
1240.52	2310.56
1243.41	2254.94
1246.3	2694.53
1249.19	3321.19
1252.09	1962.78
1254.98	941.688
1257.87	2016.91
1260.76	1032.31
1263.66	500.438
1266.55	330.562
1269.44	1728.84
1272.33	3723.44
1275.23	3949.44
1278.12	2749.25
1281.01	2023.66
1283.9	1794.94
1286.8	2056.97
1289.69	1334.5
1292.58	932.094
1295.48	414.844
