Measurement: Raman, 785 nm, unoriented, Raman Data Processed
Mineral: Magnesiohulsite
Rruff sample: R070223
Ideal chemistry: Mg_2_Fe^3+^O_2_(BO_3_)
Locality: Iten'yurginskoye Deposit, Chukotka (Tchukotka) Okrug, Chukot Peninsula, Far-Eastern Region, Russia
Source: Michael Scott
Description: Radiating black fibrous crystals
Raman shift (cm-1)	intensity
169.713	0
172.606	0.033569
175.499	5.17358
178.391	4.81323
181.284	36.4099
184.177	39.3878
187.069	80.485
189.962	127.846
192.855	117.288
195.748	133.977
198.64	124.748
201.533	143.915
204.426	140.896
207.318	122.556
210.211	112.222
213.104	114.447
215.996	111.085
218.889	125.182
221.782	136.772
224.674	102.859
227.567	125.15
230.46	87.1621
233.353	52.3578
236.245	81.4758
239.138	95.5881
242.031	37.3942
244.923	40.5772
247.816	47.9231
250.709	50.9232
253.601	50.8793
256.494	7.91858
259.387	28.7643
262.28	21.8171
265.172	14.6377
268.065	5.50903
270.958	6.97681
273.85	24.4606
276.743	3.81421
279.636	20.5485
282.529	10.1984
285.421	18.7789
288.314	29.9985
291.207	7.22876
294.099	1.67676
296.992	15.2277
299.885	18.123
302.777	6.69299
305.67	37.7711
308.563	24.4831
311.455	34.0667
314.348	20.8801
317.241	0.797974
320.134	37.7199
323.026	22.2074
325.919	27.1704
328.812	15.8143
331.704	35.4949
334.597	17.8743
337.49	27.0458
340.382	22.472
343.275	19.8174
346.168	23.4022
349.061	31.7996
351.953	21.0373
354.846	12.2987
357.739	4.82739
360.631	15.5549
363.524	0.751587
366.417	3.5188
369.31	3.68018
372.202	18.3142
375.095	27.3646
377.988	31.8429
380.88	51.1761
383.773	70.4775
386.666	33.0568
389.558	57.5853
392.451	80.3898
395.344	78.8259
398.236	110.009
401.129	107.371
404.022	112.634
406.915	120.548
409.807	85.6963
412.7	92.8438
415.593	103.285
418.485	70.2129
421.378	53.8318
424.271	57.3794
427.163	67.1721
430.056	54.0371
432.949	50.1406
435.842	50.7184
438.734	45.2582
441.627	21.6647
444.52	64.7205
447.412	84.6332
450.305	39.1924
453.198	68.045
456.091	68.0222
458.983	84.2965
461.876	87.2546
464.769	82.7836
467.661	58.5356
470.554	91.73
473.447	44.9508
476.339	38.8334
479.232	65.6864
482.125	47.7929
485.017	30.1901
487.91	51.7821
490.803	31.0212
493.696	44.2009
496.588	32.5725
499.481	38.5553
502.374	20.3494
505.266	1.83057
508.159	7.47388
511.052	10.1172
513.944	10.8287
516.837	10.5005
519.73	11.8326
522.623	28.7743
525.515	24.4562
528.408	11.8856
531.301	39.3455
534.193	0.380127
537.086	24.0515
539.979	41.3795
542.871	21.4883
545.764	15.8755
548.657	59.4977
551.55	43.3551
554.442	40.3594
557.335	29.1954
560.228	59.8198
563.12	66.3871
566.013	60.4198
568.906	35.1508
571.798	47.7473
574.691	29.5783
577.584	19.6879
580.477	24.0577
583.369	35.4995
586.262	27.059
589.155	2.84692
592.047	18.3351
594.94	51.0638
597.833	28.0247
600.726	9.77368
603.618	45.5862
606.511	35.0376
609.404	30.4842
612.296	40.6034
615.189	22.7787
618.082	38.9296
620.974	23.8453
623.867	16.6151
626.76	23.9761
629.653	41.9636
632.545	37.2445
635.438	70.5608
638.331	68.5564
641.223	57.2418
644.116	55.5331
647.009	31.4025
649.901	45.1737
652.794	70.5006
655.687	22.4747
658.58	58.9989
661.472	75.7817
664.365	64.1848
667.258	50.7963
670.15	58.2415
673.043	33.0385
675.936	5.66577
678.828	18.1959
681.721	0.517761
684.614	14.2489
687.506	16.5067
690.399	3.38635
693.292	4.414
696.185	22.1226
699.077	10.2794
701.97	14.2726
704.863	0.119873
707.755	11.2685
710.648	3.29089
713.541	0.33136
716.433	2.36908
719.326	11.5644
722.219	2.29059
725.112	31.7025
728.004	32.3218
730.897	34.5864
733.79	24.3747
736.682	32.9633
739.575	41.0719
742.468	26.6526
745.361	29.4751
748.253	33.802
751.146	16.0438
754.039	46.8889
756.931	41.9087
759.824	50.699
762.717	62.7114
765.609	31.3434
768.502	58.855
771.395	20.98
774.288	45.7799
777.18	19.6383
780.073	25.83
782.966	28.4643
785.858	4.15729
788.751	32.809
791.644	33.8622
794.536	20.889
797.429	47.4719
800.322	20.7656
803.215	24.748
806.107	40.0929
809	17.994
811.893	35.6077
814.785	11.8884
817.678	23.5016
820.571	31.6376
823.463	19.6702
826.356	23.2623
829.249	28.1406
832.141	1.62134
835.034	12.8271
837.927	4.77045
840.82	42.2728
843.712	10.0838
846.605	6.50696
849.498	31.2057
852.39	35.7915
855.283	20.0358
858.176	33.2123
861.068	20.8774
863.961	25.5335
866.854	43.631
869.747	16.9971
872.639	0.610229
875.532	19.402
878.425	0.815979
881.317	21.8662
884.21	21.5336
887.103	34.4661
889.995	18.6043
892.888	26.7105
895.781	29.5231
898.674	16.5041
901.566	36.5558
904.459	7.38159
907.352	41.9355
910.244	4.52625
913.137	29.3265
916.03	38.1414
918.923	6.11273
921.815	16.3046
924.708	15.0835
927.601	30.3459
930.493	32.2429
933.386	28.0347
936.279	21.3312
939.171	30.1197
942.064	14.1304
944.957	12.3877
947.85	3.00342
950.742	41.8574
953.635	47.962
956.528	14.0602
959.42	20.817
962.313	43.4109
965.206	26.9159
968.098	18.7514
970.991	11.0029
973.884	30.3113
976.777	50.7706
979.669	20.7979
982.562	38.6426
985.455	5.48651
988.347	9.81097
991.24	27.3757
994.133	35.5538
997.025	3.08521
999.918	39.8141
1002.81	33.8309
1005.7	8.57922
1008.6	26.6359
1011.49	18.024
1014.38	5.71649
1017.27	19.5648
1020.17	19.728
1023.06	48.9048
1025.95	35.2595
1028.85	20.5713
1031.74	34.2455
1034.63	30.7574
1037.52	25.5324
1040.42	18.9999
1043.31	30.9115
1046.2	17.9216
1049.09	15.3005
1051.99	13.187
1054.88	21.0166
1057.77	31.9449
1060.66	43.4592
1063.56	6.83691
1066.45	21.7626
1069.34	6.92694
1072.24	15.1322
1075.13	45.8054
1078.02	9.2406
1080.91	37.4593
1083.81	34.8969
1086.7	27.7225
1089.59	12.1226
1092.48	0.131531
1095.38	2.63117
1098.27	26.6856
1101.16	46.2201
1104.06	23.7125
1106.95	23.526
1109.84	0.357849
1112.73	37.5525
1115.63	40.4753
1118.52	40.0977
1121.41	30.576
1124.3	27.5002
1127.2	7.65179
1130.09	18.4832
1132.98	13.0472
1135.88	39.7383
1138.77	28.3831
1141.66	9.42444
1144.55	19.5398
1147.45	16.8917
1150.34	17.1861
1153.23	28.0623
1156.12	11.5677
1159.02	8.84033
1161.91	40.8757
1164.8	11.502
1167.69	9.31043
1170.59	19.6221
1173.48	12.1972
1176.37	26.7541
1179.27	14.5022
1182.16	18.9479
1185.05	16.4296
1187.94	20.4703
1190.84	18.045
1193.73	47.0817
1196.62	27.2179
1199.51	21.7773
1202.41	34.7914
1205.3	9.57294
1208.19	28.4232
1211.09	7.20337
1213.98	30.4102
1216.87	17.5417
1219.76	19.5479
1222.66	8.53851
1225.55	18.8487
1228.44	29.9992
1231.33	34.1495
1234.23	8.48321
