Measurement: Raman, 780 nm, unoriented, Raman Data Processed
Mineral: Magnetite
Rruff sample: R060191
Ideal chemistry: Fe^2+^Fe^3+^_2_O_4_
Locality: Merry Widow mine, Vancouver Island, British Columbia, Canada
Source: Lloyd Twaites
Description: Grayish-black octahedral crystals
Measured chemistry: (Fe^2+^_0.97_Mg_0.03_)(Fe^3+^_0.97_Al_0.03_)_2_O_4_
Raman shift (cm-1)	intensity
142.449	0
145.342	0.029435
148.235	0.865573
151.127	0.184331
154.02	0.599408
156.913	0.834283
159.806	0.926026
162.698	0.510425
165.591	0.124698
168.484	0.793408
171.376	0.775474
174.269	0.601311
177.162	0.553367
180.054	0.428484
182.947	0.1033
185.84	0.099622
188.733	0.148586
191.625	0.167575
194.518	0.002313
197.411	0.469363
200.303	0.043321
203.196	0.167424
206.089	0.850466
208.982	3.13489
211.874	4.03775
214.767	4.53562
217.66	3.98661
220.552	2.94698
223.445	1.89541
226.338	1.71472
229.23	1.09902
232.123	1.43448
235.016	1.41233
237.909	1.38025
240.801	0.656971
243.694	1.61245
246.587	1.33185
249.479	0.111561
252.372	1.1456
255.265	0.244161
258.157	0.47654
261.05	1.37224
263.943	0.972832
266.836	2.19056
269.728	3.47375
272.621	5.00339
275.514	8.08714
278.406	9.36511
281.299	10.3881
284.192	10.0368
287.084	8.38503
289.977	6.46629
292.87	4.92131
295.762	4.41273
298.655	2.76348
301.548	1.6896
304.441	1.80681
307.333	1.39621
310.226	1.05193
313.119	1.04012
316.011	1.15197
318.904	0.383059
321.797	0.510654
324.69	0.189916
327.582	0.066815
330.475	0.123429
333.368	0.213752
336.26	0.169863
339.153	0.237942
342.046	0.203918
344.938	0.380003
347.831	0.174552
350.724	0.821008
353.616	0.819252
356.509	1.21757
359.402	0.185412
362.295	1.27493
365.187	0.976198
368.08	1.41527
370.973	2.12561
373.865	2.93046
376.758	3.24649
379.651	3.83744
382.543	6.22025
385.436	6.41418
388.329	7.77681
391.222	9.21742
394.114	8.76507
397.007	7.77044
399.9	7.0603
402.792	6.20045
405.685	4.43212
408.578	3.64837
411.471	3.24812
414.363	1.67116
417.256	0.613407
420.149	1.13974
423.041	0.239464
425.934	0.682454
428.827	0.078615
431.719	0.092059
434.612	0.064597
437.505	0.077515
440.397	0.04354
443.29	0.025995
446.183	0.118238
449.076	0.008219
451.968	0.00152
454.861	0.553103
457.754	0.307659
460.646	1.15887
463.539	1.17978
466.432	0.712629
469.325	1.20816
472.217	1.16562
475.11	1.72733
478.003	1.75615
480.895	1.47329
483.788	1.53971
486.681	1.64525
489.573	1.65006
492.466	1.53721
495.359	1.64223
498.252	1.54582
501.144	1.62273
504.037	1.56365
506.93	1.39057
509.822	1.23816
512.715	0.986363
515.608	1.24229
518.5	1.57189
521.393	0.770104
524.286	0.915975
527.178	0.678687
530.071	0.945894
532.964	0.489424
535.857	0.323486
538.749	0.011459
541.642	0.361448
544.535	0.208683
547.427	0.130272
550.32	0.065917
553.213	0.214027
556.106	0.074467
558.998	0.038733
561.891	0.147632
564.784	0.135956
567.676	0.205862
570.569	0.682978
573.462	0.535971
576.354	0.833914
579.247	0.762339
582.14	1.62875
585.033	1.9944
587.925	2.06033
590.818	2.40496
593.711	1.99352
596.603	2.43975
599.496	2.44518
602.389	2.35259
605.281	2.18401
608.174	1.71596
611.067	1.62977
613.959	1.86545
616.852	1.50111
619.745	1.34537
622.638	2.53964
625.53	3.19918
628.423	3.04302
631.316	3.39988
634.208	4.48303
637.101	4.85179
639.994	5.61803
642.886	6.40087
645.779	7.07368
648.672	7.76942
651.564	8.59519
654.457	9.14674
657.35	8.90885
660.243	8.44863
663.135	7.88058
666.028	6.98484
668.921	6.43749
671.813	5.87172
674.706	5.2654
677.599	4.71652
680.491	4.28084
683.384	3.90094
686.277	2.62949
689.17	2.66857
692.062	1.59787
694.955	0.871954
697.848	0.610639
700.74	0.375754
703.633	0.104304
706.526	0.12142
709.418	0.412823
712.311	0.20688
715.204	0.216422
718.097	0.012355
720.989	0.244346
723.882	0.064701
726.775	0.042188
729.667	0.072757
732.56	0.905248
735.453	0.172145
738.346	0.308033
741.238	0.096942
744.131	0.061794
747.024	0.288525
749.916	0.01291
752.809	0.31361
755.702	0.079172
758.594	0.304207
761.487	0.989312
764.38	0.397889
767.273	0.859332
770.165	1.17228
773.058	0.199146
775.951	0.982933
778.843	0.016702
781.736	0.962958
784.629	0.499542
787.521	0.769153
790.414	0.034097
793.307	0.841489
796.199	0.461578
799.092	0.757199
801.985	0.107617
804.878	0.71813
807.77	0.289666
810.663	0.508141
813.556	0.506144
816.448	0.005253
819.341	0.95507
822.234	0.3632
825.126	0.388137
828.019	0.063169
830.912	0.601232
833.805	1.02763
836.697	1.06519
839.59	0.595103
842.483	0.047207
845.375	0.06158
848.268	0.400267
851.161	0.848222
854.053	0.614955
856.946	0.154347
859.839	0.906587
862.732	0.2839
865.624	0.501174
868.517	0.982868
871.41	0.029714
874.302	0.880211
877.195	0.663753
880.088	0.863153
882.981	0.426989
885.873	0.554094
888.766	0.611278
891.659	0.052634
894.551	0.610806
897.444	0.864497
900.337	0.548491
903.229	0.995974
906.122	0.049468
909.015	0.213084
911.908	0.847436
914.8	0.587273
917.693	0.100506
920.586	0.407002
923.478	0.241701
926.371	0.00939
929.264	0.349051
932.156	0.094912
935.049	0.326153
937.942	0.93134
940.835	1.34294
943.727	0.22012
946.62	0.69413
949.513	0.393343
952.405	0.45477
955.298	0.698949
958.191	0.003694
961.083	0.269249
963.976	0.359596
966.869	0.299037
969.761	0.545026
972.654	0.190297
975.547	0.301988
978.44	0.500325
981.332	0.270562
984.225	0.033874
987.118	0.068076
990.01	0.438235
992.903	0.308174
995.796	0.993265
998.688	0.402192
1001.58	0.148062
1004.47	0.999595
1007.37	0.468809
1010.26	0.139209
1013.15	0.479035
1016.04	0.7797
1018.94	0.698578
1021.83	0.772322
1024.72	0.687239
1027.62	0.383242
1030.51	0.207418
1033.4	0.470233
1036.29	0.456912
1039.19	0.386276
1042.08	0.200015
1044.97	0.223521
1047.86	0.530676
1050.76	0.286685
1053.65	0.636025
1056.54	0.001563
1059.43	1.40426
1062.33	1.39396
1065.22	0.078693
1068.11	0.075872
1071.01	0.850719
1073.9	0.205359
1076.79	0.129607
1079.68	0.163873
1082.58	0.770037
1085.47	0.614456
1088.36	0.079595
1091.26	0.915565
1094.15	0.804732
1097.04	0.431258
1099.93	0.105234
1102.83	0.790844
1105.72	0.816621
1108.61	0.172794
1111.5	0.400786
1114.4	0.338654
1117.29	0.043067
1120.18	0.486165
1123.08	0.157387
1125.97	0.135244
1128.86	1.04779
1131.75	0.337792
1134.64	0.977077
1137.54	0.391968
1140.43	0.588155
1143.32	0.473539
1146.22	0.41784
1149.11	0.669543
1152	0.617771
1154.89	0.872706
1157.79	0.001688
1160.68	1.13702
1163.57	0.576862
1166.46	0.883265
1169.36	0.988158
1172.25	1.07418
1175.14	0.907032
1178.04	0.858377
1180.93	0.582356
1183.82	0.478676
1186.71	0.122685
1189.61	1.21802
1192.5	0.253276
1195.39	0.587021
1198.29	0.008586
1201.18	0.465197
1204.07	0.01351
1206.96	0.751834
1209.86	0.301114
1212.75	0.174724
1215.64	0.626925
1218.53	0.378104
1221.43	0.465131
1224.32	0.538082
1227.21	1.13945
1230.1	0.029223
1233	0.016844
1235.89	0.351377
1238.78	0.831137
1241.67	0.270079
1244.57	0.940054
1247.46	1.01489
1250.35	0.964115
1253.25	0.798323
1256.14	0.408019
1259.03	0.324981
1261.92	0.145821
1264.82	0.036125
1267.71	0.848448
1270.6	0.554503
1273.49	1.25748
1276.39	0.806917
1279.28	0.254816
1282.17	0.627582
1285.07	0.007334
