Measurement: Raman, 532 nm, unoriented, Raman Data Processed
Mineral: Magnesiocoulsonite
Rruff sample: R070218
Ideal chemistry: MgV^3+^_2_O_4_
Locality: Pereval Marble Quarry, Sludyanka (Slyudyanka), Baikal area, Buriatia (Buryatia) Republic, Transbaikalia (Zabaykalye), Eastern-Siberian Region, Russia
Source: Michael Scott
Description: Black grains with internal hints of red
Raman shift (cm-1)	intensity
181.482	0
184.374	25.1162
187.267	0.358398
190.16	148.822
193.052	81.8359
195.945	151.208
198.838	66.6631
201.731	166.743
204.623	169.654
207.516	374.06
210.409	239.932
213.301	304.571
216.194	235.473
219.087	123.119
221.979	210.337
224.872	204.819
227.765	258.557
230.657	179.819
233.55	175.977
236.443	283.069
239.336	275.437
242.228	252.815
245.121	180.473
248.014	180.238
250.906	190.534
253.799	351.671
256.692	166.506
259.584	167.653
262.477	189.939
265.37	108.99
268.263	101.272
271.155	136.888
274.048	137.904
276.941	118.281
279.833	106.453
282.726	50.7324
285.619	99.3926
288.512	60.7773
291.404	48.752
294.297	154.481
297.19	90.916
300.082	67.543
302.975	50.5449
305.868	86.7285
308.76	121.562
311.653	121.875
314.546	19.2012
317.438	54.0938
320.331	60.084
323.224	2.89648
326.117	2.94922
329.009	91.1699
331.902	16.1191
334.795	31.5098
337.687	29.1113
340.58	70.6484
343.473	88.6641
346.365	101.586
349.258	46.8516
352.151	51.6328
355.044	129.789
357.936	137.088
360.829	41.0234
363.722	61.957
366.614	42.7461
369.507	102.498
372.4	46.3086
375.293	55.9863
378.185	120.967
381.078	53.1895
383.971	48.9707
386.863	19.4551
389.756	117.894
392.649	75.3496
395.541	83.1797
398.434	81.9707
401.327	130.617
404.219	112.816
407.112	15.248
410.005	50.3281
412.898	136.424
415.79	238.94
418.683	151.506
421.576	208.018
424.469	162.615
427.361	64.9668
430.254	214.881
433.147	211.252
436.039	158.353
438.932	188.637
441.825	280.158
444.717	192.832
447.61	92.4668
450.503	136.488
453.396	164.871
456.288	135.07
459.181	94.0977
462.074	159.871
464.966	143.728
467.859	66.4453
470.752	64.3652
473.644	95.582
476.537	29.8809
479.43	4.91211
482.322	82.8691
485.215	60.0684
488.108	45.3105
491.001	46.1133
493.893	10.3691
496.786	37.0059
499.679	33.8301
502.571	25.8652
505.464	70.8262
508.357	57.0117
511.25	47.5254
514.142	29.1699
517.035	16.291
519.928	30.0742
522.82	68.6934
525.713	36.7949
528.606	12.8262
531.498	71.3789
534.391	4.90625
537.284	1.00586
540.177	24.8613
543.069	34.6953
545.962	164.201
548.855	42.3438
551.747	50.4141
554.64	64.0059
557.533	126.477
560.425	42.9492
563.318	65.0078
566.211	117.596
569.104	43.7793
571.996	28.1152
574.889	29.709
577.782	53.0586
580.674	24.2344
583.567	91.5742
586.46	95.4902
589.352	106.238
592.245	106.926
595.138	83.9297
598.031	142.551
600.923	106.514
603.816	130.836
606.709	91.6562
609.601	72.1758
612.494	217.654
615.387	172.006
618.279	214.26
621.172	253.481
624.065	176.467
626.958	288.803
629.85	176.863
632.743	259.928
635.636	179.217
638.528	144.137
641.421	208.326
644.314	140.268
647.207	144.297
650.099	225.371
652.992	214.953
655.885	31.7383
658.777	317.316
661.67	197.748
664.563	290.053
667.455	152.945
670.348	203.467
673.241	235.15
676.134	280.383
679.026	202.441
681.919	190.215
684.812	198.58
687.704	52.6465
690.597	46.0332
693.49	136.842
696.382	3.04102
699.275	42.3242
702.168	169.08
705.061	72.4531
707.953	67.6816
710.846	91.5879
713.739	21.9121
716.631	72.7168
719.524	136.25
722.417	107.441
725.309	195.91
728.202	190.435
731.095	182.709
733.987	191.086
736.88	60.5508
739.773	216.223
742.666	49.8164
745.558	18.2383
748.451	26.2812
751.344	14.6543
754.236	140.963
757.129	103.971
760.022	19.0625
762.915	89.3769
765.807	79.3281
768.7	106.615
771.593	120.914
774.485	112.691
777.378	12.3359
780.271	241.26
783.163	23.9336
786.056	105.373
788.949	29.0488
791.842	71.9805
794.734	83.7441
797.627	84.5625
800.52	11.3125
803.412	52.6328
806.305	108.338
809.198	0.953125
812.091	34.834
814.983	79.8867
817.876	10.3066
820.769	85.4453
823.661	21.2266
826.554	222.111
829.447	18.0059
832.339	69.5957
835.232	36.1582
838.125	225.16
841.018	55.0371
843.91	54.9766
846.803	41.498
849.696	22.6309
852.588	130.244
855.481	213.09
858.374	126.135
861.266	6.59961
864.159	191.543
867.052	72.2852
869.944	189.481
872.837	199.211
875.73	54.0742
878.623	141.685
881.515	22.3789
884.408	159.846
887.301	208.197
890.193	229.094
893.086	113.248
895.979	270.44
898.871	21.8906
901.764	233.723
904.657	134.762
907.55	18.041
910.442	218.727
913.335	269.303
916.228	268.088
919.12	221.623
922.013	140.58
924.906	64.0508
927.798	173.338
930.691	162.428
933.584	97.0566
936.477	200.418
939.369	79.7422
942.262	147.195
945.155	130.144
948.047	127.144
950.94	177.326
953.833	41.7734
956.726	196.103
959.618	28.3066
962.511	107.244
965.404	137.269
968.296	125.846
971.189	151.447
974.082	120.098
976.974	34.9883
979.867	104.592
982.76	226.065
985.653	117.24
988.545	123.947
991.438	111.234
994.331	134.143
997.223	295.824
1000.12	215.816
1003.01	64.666
1005.9	61.041
1008.79	190.674
1011.69	113.846
1014.58	66.6172
1017.47	86.1465
1020.37	124.049
1023.26	147.596
1026.15	93.7109
1029.04	94.1152
1031.94	186.754
1034.83	49.4258
1037.72	89.5117
1040.61	21.0371
1043.51	99.2481
1046.4	73.0098
1049.29	50.0801
1052.18	42.5527
1055.08	71.2285
1057.97	4.65234
1060.86	192.123
1063.76	157.539
1066.65	62.3965
1069.54	226.078
1072.43	103.272
1075.33	53.0977
1078.22	132.121
1081.11	94.3867
1084	106.414
1086.9	73.1719
1089.79	82.9336
1092.68	98.2266
1095.58	68.5391
1098.47	143.523
1101.36	212.383
1104.25	23.2695
1107.15	56.668
1110.04	71.1172
1112.93	195.129
1115.82	134.758
1118.72	66.9531
1121.61	86.5039
1124.5	175.078
1127.39	162.133
1130.29	115.648
1133.18	108.203
1136.07	185.32
1138.97	23.8125
1141.86	193.902
1144.75	224.773
1147.64	115.492
1150.54	229.953
1153.43	141.769
1156.32	131.184
1159.21	44.2891
1162.11	262.629
1165	128.551
1167.89	240.051
1170.79	295.391
1173.68	154.012
1176.57	226.269
1179.46	190.684
1182.36	275.672
1185.25	73.0664
1188.14	100.469
1191.03	73.0234
1193.93	66.1211
1196.82	80.9766
1199.71	116.394
1202.61	94.8242
1205.5	168.891
1208.39	119.473
1211.28	70.9844
1214.18	84.5547
1217.07	35.2305
1219.96	182.984
1222.85	45.5781
1225.75	66.8945
1228.64	147.371
1231.53	37.8594
1234.42	92.4609
1237.32	130.602
1240.21	35.0742
1243.1	98.0156
1246	213.812
1248.89	168.027
1251.78	120.281
1254.67	65.6406
1257.57	70
1260.46	45.8125
1263.35	124.051
1266.24	112.199
1269.14	12.168
1272.03	344.644
1274.92	297.406
1277.82	197.488
1280.71	65.9805
1283.6	199.449
1286.49	35.4453
1289.39	94.4961
1292.28	109.188
1295.17	79.2891
1298.06	56.0352
1300.96	20.0898
