Measurement: Raman, 780 nm, unoriented, Raman Data Processed
Mineral: Magnesiocarpholite
Rruff sample: R140873
Ideal chemistry: MgAl_2_Si_2_O_6_(OH)_4_
Locality: Sengelbach valley, Biesenrode, Wippra Metamorphic Zone, Harz, Saxony-Anhalt, Germany
Source: Stefan Schorn
Description: Green to gray fibers
Raman shift (cm-1)	intensity
103.01	0
106.385	37.3418
109.76	81.3984
113.135	137.6
116.509	71.8398
119.884	79.6641
123.259	153.818
126.634	162.768
130.009	99.1894
133.383	92.0488
136.758	163.213
140.133	192.748
143.508	230.828
146.883	248.07
150.257	278.004
153.632	254.832
157.007	307.316
160.382	275.984
163.757	216.356
167.132	214.875
170.506	145.09
173.881	141.348
177.256	173.684
180.631	200.477
184.006	161.723
187.381	150.66
190.755	130.195
194.13	125.699
197.505	109.383
200.88	187.691
204.255	154.426
207.629	85.5664
211.004	59.1992
214.379	35.9062
217.754	54.918
221.129	42.7227
224.504	47.2656
227.878	54.3672
231.253	67.2188
234.628	57.5859
238.003	57.543
241.378	33.6367
244.752	38.8516
248.127	63.7695
251.502	17.8125
254.877	2.33594
258.252	77.2773
261.627	3.74609
265.001	69.0391
268.376	65.168
271.751	7.17969
275.126	24.9023
278.5	90.9375
281.875	77.4297
285.25	43.3008
288.625	25.3711
292	12.2734
295.375	7.79297
298.75	19.3359
302.124	40.7852
305.499	44.8398
308.874	11.332
312.249	30.4102
315.623	11.168
318.998	6.64453
322.373	50.5391
325.748	47.2891
329.123	106.09
332.498	86.7676
335.873	71.9863
339.247	62.3965
342.622	61.1543
345.997	81.543
349.372	110.416
352.747	84.1465
356.121	4.64648
359.496	34.8555
362.871	75.4277
366.246	126.779
369.621	89.1269
372.995	68.6016
376.37	48.6387
379.745	58.6973
383.12	72.8711
386.495	3.93945
389.87	5.66602
393.244	35.4316
396.619	71.6992
399.994	107.514
403.369	57.2207
406.744	6.0293
410.118	35.3008
413.493	68.4668
416.868	19.3711
420.243	113.863
423.618	145.078
426.993	177.912
430.367	151.365
433.742	125.299
437.117	149.492
440.492	226.545
443.867	209.551
447.241	135.051
450.616	150.096
453.991	146.402
457.366	217.992
460.741	191.455
464.115	149.014
467.49	206.381
470.865	200.451
474.24	215.484
477.615	187.531
480.99	167.158
484.364	139.834
487.739	168.025
491.114	127.717
494.489	152.586
497.864	137.697
501.238	74.4102
504.613	29.002
507.988	79.6172
511.363	21.2891
514.738	57.6074
518.112	57.7812
521.487	26.1738
524.862	41.3203
528.237	54.5117
531.612	20.0234
534.987	31.8145
538.361	13.8105
541.736	98.1269
545.111	53.1328
548.486	87.5117
551.861	65.1777
555.236	17.0273
558.61	5.36523
561.985	23.0098
565.36	66.7344
568.735	35.7012
572.11	94.9746
575.484	78.2109
578.859	120.207
582.234	85.5723
585.609	83.2188
588.984	85.0273
592.359	91.5859
595.733	76.6797
599.108	69.6953
602.483	136.853
605.858	165.984
609.233	79.4121
612.607	77.5723
615.982	60.7344
619.357	70.1465
622.732	62.6211
626.107	80.0019
629.482	94.0977
632.856	134.484
636.231	98.0234
639.606	68.5117
642.981	31.9922
646.356	44.9043
649.731	3.08008
653.105	29.5098
656.48	46.7637
659.855	55.7969
663.23	44.3945
666.605	30.9785
669.979	14.7988
673.354	3.67578
676.729	59.0215
680.104	12.3105
683.479	8.42969
686.854	23.5801
690.228	48.7031
693.603	78.0938
696.978	80.5684
700.353	15.0234
703.727	25.8281
707.102	79.8828
710.477	78.4883
713.852	26.7207
717.227	25.0332
720.602	50.1406
723.976	40.1543
727.351	48.6836
730.726	122.533
734.101	148.047
737.476	104.301
740.851	105.844
744.225	13.6055
747.6	2.83203
750.975	29.8555
754.35	9.77734
757.725	57.7793
761.099	87.7012
764.474	51.998
767.849	35.125
771.224	6.39258
774.599	31.2461
777.973	16.0273
781.348	32.4375
784.723	47.0078
788.098	53.666
791.473	12.8574
794.848	11.3164
798.222	15.7344
801.597	15.0684
804.972	99.8516
808.347	66.8262
811.722	70.5215
815.096	61.6387
818.471	52.627
821.846	94.1777
825.221	70.3926
828.596	62.1875
831.971	71.1562
835.345	110.492
838.72	93.7617
842.095	110.432
845.47	36.9355
848.845	80.7227
852.22	76.9551
855.594	59.5859
858.969	9.04297
862.344	48.1348
865.719	22.2207
869.094	38.0254
872.468	63.2617
875.843	12.0059
879.218	21.5879
882.593	89.3867
885.968	47.166
889.342	50.9414
892.717	24.5801
896.092	14.2109
899.467	75.457
902.842	25.0586
906.217	51.6758
909.591	49.0859
912.966	2.47266
916.341	10.1934
919.716	14.2305
923.091	6.55078
926.466	70.9023
929.84	79.1348
933.215	42.041
936.59	55.1641
939.965	31.3711
943.34	45.6797
946.714	18.4629
950.089	0.230469
953.464	31.5117
956.839	15.5293
960.214	55.9824
963.588	2.38672
966.963	19.4727
970.338	42.8184
973.713	18.3857
977.088	39.2246
980.462	54.2588
983.837	15.627
987.212	10.167
990.587	10.8779
993.962	55.9766
997.337	29.7012
1000.71	64.1533
1004.09	43.4775
1007.46	26.1768
1010.84	35.8184
1014.21	55.1826
1017.59	44.5107
1020.96	34.0684
1024.34	14.1406
1027.71	69.2812
1031.09	63.7285
1034.46	104.473
1037.83	48.4844
1041.21	70.8242
1044.58	0.15625
1047.96	46.5772
1051.33	28.8643
1054.71	59.835
1058.08	95.168
1061.46	41.5469
1064.83	17.0586
1068.21	11.1191
1071.58	61.5742
1074.96	50.3535
1078.33	62.7676
1081.71	15.1963
1085.08	88.1309
1088.46	29.2432
1091.83	64.4727
1095.21	28.75
1098.58	41.832
1101.96	12.3447
1105.33	60.6934
1108.71	74.1397
1112.08	6.39746
1115.45	8.96191
1118.83	22.0869
1122.2	13.873
1125.58	35.832
1128.95	46.5625
1132.33	50.3232
1135.7	36.9815
1139.08	33.5166
1142.45	13.5781
1145.83	68.7695
1149.2	38.5371
1152.58	78.5576
1155.95	57.1855
1159.33	56.3232
1162.7	44.8545
1166.08	97.1553
1169.45	68.7666
1172.83	103.676
1176.2	62.8623
1179.58	52.4072
1182.95	73.1484
1186.33	87.3574
1189.7	112.387
1193.08	63.376
1196.45	53.6055
1199.83	80.8984
1203.2	70.6914
1206.58	106.311
1209.95	36.4629
1213.33	16.6865
1216.7	64.875
1220.08	13.4815
1223.45	61.5723
1226.82	28.1338
1230.2	17.4561
1233.57	32.3272
1236.95	43.6914
1240.32	0.254883
1243.7	82.5908
1247.07	26.7314
1250.45	11.1143
1253.82	64.3545
1257.2	81.3057
1260.57	51.2207
1263.95	54.1221
1267.32	40.5684
1270.7	46.6377
1274.07	62.1191
1277.45	20.9053
1280.82	0.46875
