Measurement: Raman, 780 nm, unoriented, Raman Data Processed
Mineral: Malachite
Rruff sample: R050508
Ideal chemistry: Cu^2+^_2_CO_3_(OH)_2_
Locality: Kambova, Kantanga, Zaire
Source: University of Arizona Mineral Museum
Description: Green short bladed crystals
Measured chemistry: Cu_2.00_(CO_3_)(OH)_2_
Raman shift (cm-1)	intensity
134.281	0
137.174	0.3163
140.066	0.268627
142.959	0.046723
145.852	0.451703
148.744	0.299478
151.637	0.168375
154.53	0.446069
157.423	0.47568
160.315	0.493071
163.208	0.637211
166.101	1.02295
168.994	0.697048
171.886	0.757922
174.779	0.620918
177.672	0.557643
180.564	0.339721
183.457	0.259948
186.35	0.044683
189.242	0.093177
192.135	0.045564
195.028	0.03464
197.921	0.199632
200.813	0.106098
203.706	0.300111
206.599	0.525213
209.491	0.371684
212.384	0.631145
215.277	0.56414
218.169	0.451313
221.062	0.35659
223.955	0.474992
226.847	0.452131
229.74	0.231448
232.633	0.671009
235.526	0.456843
238.418	0.770887
241.311	0.775995
244.204	0.841296
247.096	0.505799
249.989	0.994829
252.882	0.685019
255.774	0.914484
258.667	0.867436
261.56	0.592006
264.453	0.710679
267.345	0.285047
270.238	0.32097
273.131	0.575849
276.023	0.283694
278.916	0.231078
281.809	0.301013
284.702	0.2118
287.594	0.000876
290.487	0.227561
293.38	0.046516
296.272	0.306303
299.165	0.049669
302.058	0.067099
304.95	0.131868
307.843	0.109712
310.736	0.035476
313.629	0.044857
316.521	0.320753
319.414	0.235558
322.307	0.17376
325.199	0.178732
328.092	0.039317
330.985	0.264885
333.877	0.259203
336.77	0.105906
339.663	0.292513
342.556	0.349459
345.448	0.362034
348.341	0.142913
351.234	0.294828
354.126	0.265002
357.019	0.276178
359.912	0.326438
362.805	0.07409
365.697	0.010891
368.59	0.26211
371.483	0.3703
374.375	0.180584
377.268	0.201121
380.161	0.099283
383.053	0.152123
385.946	0.026196
388.839	0.20733
391.731	0.150115
394.624	0.232468
397.517	0.207077
400.41	0.431702
403.302	0.393332
406.195	0.132367
409.088	0.437275
411.98	0.241391
414.873	0.369622
417.766	0.533808
420.659	0.489345
423.551	0.772083
426.444	0.360497
429.337	0.534804
432.229	0.700751
435.122	0.375487
438.015	0.488322
440.907	0.183195
443.8	0.136227
446.693	0.20352
449.586	0.088778
452.478	0.155144
455.371	0.016339
458.264	0.324648
461.156	0.146753
464.049	0.02232
466.942	0.390858
469.834	0.073416
472.727	0.197548
475.62	0.304534
478.513	0.05834
481.405	0.129426
484.298	0.000958
487.191	0.111113
490.083	0.074248
492.976	0.101629
495.869	0.244794
498.762	0.246315
501.654	0.083115
504.547	0.080142
507.44	0.25733
510.332	0.136202
513.225	0.13338
516.118	0.260739
519.01	0.319834
521.903	0.147039
524.796	0.275851
527.688	0.329913
530.581	0.084687
533.474	0.367392
536.367	0.361105
539.259	0.269769
542.152	0.36709
545.045	0.033744
547.937	0.360693
550.83	0.173276
553.723	0.266208
556.615	0.076125
559.508	0.293414
562.401	0.164686
565.294	0.256854
568.186	0.093771
571.079	0.083488
573.972	0.222976
576.864	0.061237
579.757	0.101931
582.65	0.198642
585.543	0.148319
588.435	0.229836
591.328	0.349455
594.221	0.029418
597.113	0.170018
600.006	0.265931
602.899	0.221354
605.791	0.028028
608.684	0.158192
611.577	0.141333
614.47	0.227325
617.362	0.380346
620.255	0.226862
623.148	0.041298
626.04	0.393418
628.933	0.30793
631.826	0.206646
634.718	0.036795
637.611	0.299815
640.504	0.352834
643.397	0.115956
646.289	0.243856
649.182	0.305208
652.075	0.085083
654.967	0.362382
657.86	0.093619
660.753	0.112602
663.645	0.167361
666.538	0.395835
669.431	0.137137
672.324	0.112774
675.216	0.18626
678.109	0.297174
681.002	0.248904
683.894	0.21052
686.787	0.326008
689.68	0.2828
692.572	0.356111
695.465	0.106207
698.358	0.175261
701.251	0.043445
704.143	0.017966
707.036	0.166686
709.929	0.10189
712.821	0.299793
715.714	0.221934
718.607	0.020021
721.5	0.280761
724.392	0.196854
727.285	0.098289
730.178	0.117227
733.07	0.253277
735.963	0.232944
738.856	0.064039
741.749	0.083131
744.641	0.264404
747.534	0.336103
750.427	0.235664
753.319	0.088299
756.212	0.366717
759.105	0.120889
761.997	0.154696
764.89	0.053745
767.783	0.087085
770.676	0.217994
773.568	0.455735
776.461	0.364115
779.354	0.211643
782.246	0.163394
785.139	0.471169
788.032	0.246752
790.924	0.030995
793.817	0.338788
796.71	0.048364
799.602	0.425507
802.495	0.095395
805.388	0.205009
808.281	0.151227
811.173	0.436525
814.066	0.460853
816.959	0.199324
819.851	0.045393
822.744	0.252626
825.637	0.158207
828.529	0.155623
831.422	0.307351
834.315	0.252262
837.208	0.430851
840.1	0.552155
842.993	0.161187
845.886	0.222241
848.778	0.327175
851.671	0.474235
854.564	0.534695
857.457	0.492174
860.349	0.415138
863.242	0.577316
866.135	0.338155
869.027	0.314006
871.92	0.308426
874.813	0.211677
877.705	0.491189
880.598	0.375932
883.491	0.303046
886.384	0.232256
889.276	0.426874
892.169	0.333302
895.062	0.195058
897.954	0.306919
900.847	0.194862
903.74	0.281436
906.632	0.005873
909.525	0.240174
912.418	0.07254
915.311	0.168208
918.203	0.176553
921.096	0.189876
923.989	0.024764
926.881	0.088089
929.774	0.153205
932.667	0.436064
935.559	0.215313
938.452	0.430887
941.345	0.36506
944.238	0.173522
947.13	0.068034
950.023	0.368966
952.916	0.277804
955.808	0.483041
958.701	0.249695
961.594	0.016489
964.486	0.123058
967.379	0.143716
970.272	0.143973
973.165	0.284142
976.057	0.007002
978.95	0.002665
981.843	0.225547
984.735	0.057134
987.628	0.161482
990.521	0.117775
993.413	0.100401
996.306	0.264613
999.199	0.310263
1002.09	0.283165
1004.98	0.066905
1007.88	0.001226
1010.77	0.184076
1013.66	0.15849
1016.55	0.172486
1019.45	0.074894
1022.34	0.196416
1025.23	0.066507
1028.13	0.142931
1031.02	0.181997
1033.91	0.227263
1036.8	0.136042
1039.7	0.262574
1042.59	0.190145
1045.48	0.168825
1048.38	0.260978
1051.27	0.366573
1054.16	0.167871
1057.05	0.411286
1059.95	0.236364
1062.84	0.252651
1065.73	0.320045
1068.62	0.338174
1071.52	0.250254
1074.41	0.316349
1077.3	0.366282
1080.19	0.416668
1083.09	0.192883
1085.98	0.550974
1088.87	0.234682
1091.77	0.300146
1094.66	0.312207
1097.55	0.177291
1100.44	0.233751
1103.34	0.115639
1106.23	0.187858
1109.12	0.010103
1112.01	0.169687
1114.91	0.122635
1117.8	0.180034
1120.69	0.051791
1123.59	0.325937
1126.48	0.011753
1129.37	0.096244
1132.26	0.216635
1135.16	0.23137
1138.05	0.215387
1140.94	0.179346
1143.83	0.175738
1146.73	0.287898
1149.62	0.226991
1152.51	0.31675
1155.4	0.104611
1158.3	0.156144
1161.19	0.144834
1164.08	0.274656
1166.98	0.208748
1169.87	0.15995
1172.76	0.411896
1175.65	0.185002
1178.55	0.173989
1181.44	0.36871
1184.33	0.163429
1187.22	0.063272
1190.12	0.277816
1193.01	0.003693
1195.9	0.070106
1198.8	0.282781
1201.69	0.173996
1204.58	0.279623
1207.47	0.225976
1210.37	0.183811
1213.26	0.175121
1216.15	0.272556
1219.04	0.113007
1221.94	0.331746
1224.83	0.284259
1227.72	0.283481
1230.62	0.30267
1233.51	0.094034
1236.4	0.233166
1239.29	0.277287
1242.19	0.223939
1245.08	0.124704
1247.97	0.278758
1250.86	0.126843
1253.76	0.274507
1256.65	0.369801
1259.54	0.050609
1262.43	0.265689
1265.33	0.215871
1268.22	0.412069
1271.11	0.092584
1274.01	0.179912
1276.9	0.172458
1279.79	0.172152
1282.68	0
