Measurement: Raman, 785 nm, unoriented, Raman Data Processed
Mineral: Malanite
Rruff sample: R070051
Ideal chemistry: Cu^1+^(Ir^3+^Pt^4+^)S^2-^_4_
Locality: placer from Philipp Massif, Kamchatka, Russia
Source: Michael Scott
Description: Silver gray metallic polished fragment embedded in epoxy
Raman shift (cm-1)	intensity
160.362	0
163.254	132.24
166.147	86.402
169.04	47.5048
171.932	8.992
174.825	75.4722
177.718	89.0868
180.61	26.3361
183.503	13.0316
186.396	3.43036
189.288	12.5475
192.181	13.9397
195.074	0.022552
197.967	27.395
200.859	5.04105
203.752	42.8235
206.645	41.6998
209.537	37.3413
212.43	34.5643
215.323	65.5872
218.215	25.1267
221.108	28.1388
224.001	22.9032
226.894	10.2485
229.786	4.81897
232.679	1.70117
235.572	10.7698
238.464	5.88532
241.357	13.9442
244.25	19.8305
247.143	14.9849
250.035	19.7304
252.928	22.3306
255.821	25.6874
258.713	15.3291
261.606	18.3394
264.499	26.2203
267.391	20.6694
270.284	26.9349
273.177	33.8865
276.07	35.7351
278.962	48.9607
281.855	44.2201
284.748	32.0368
287.64	27.9188
290.533	25.6976
293.426	26.2232
296.318	21.7821
299.211	7.19276
302.104	10.6355
304.997	7.37558
307.889	15.4791
310.782	16.8955
313.675	17.0973
316.567	12.4088
319.46	10.4861
322.353	11.9686
325.245	2.23278
328.138	4.6637
331.031	0.867409
333.923	0.472359
336.816	8.04996
339.709	2.80561
342.602	9.06072
345.494	6.44819
348.387	12.5102
351.28	15.2933
354.172	5.7062
357.065	13.4541
359.958	10.1722
362.851	18.3206
365.743	6.18582
368.636	5.08689
371.529	14.5916
374.421	5.67056
377.314	8.0256
380.207	19.3419
383.099	6.32714
385.992	13.7335
388.885	8.67297
391.777	13.6183
394.67	10.8946
397.563	1.50399
400.456	11.9957
403.348	1.3758
406.241	2.69507
409.134	9.93742
412.026	11.3619
414.919	9.29264
417.812	13.7274
420.704	2.46578
423.597	11.2495
426.49	12.0101
429.383	5.71281
432.275	10.1504
435.168	8.6401
438.061	12.2175
440.953	16.7742
443.846	6.40398
446.739	11.9773
449.632	7.53181
452.524	5.09373
455.417	12.003
458.31	13.0183
461.202	9.33085
464.095	9.33078
466.988	3.00445
469.88	7.56722
472.773	9.79455
475.666	1.19571
478.558	12.1477
481.451	0.026375
484.344	9.77006
487.237	6.55778
490.129	5.20268
493.022	17.2135
495.915	15.5112
498.807	5.94616
501.7	13.0676
504.593	15.2244
507.486	4.84737
510.378	6.91973
513.271	10.977
516.164	5.48767
519.056	0.725029
521.949	7.64724
524.842	14.9496
527.734	2.67717
530.627	5.04564
533.52	4.85274
536.413	3.37331
539.305	5.53555
542.198	13.0747
545.091	5.7597
547.983	10.5948
550.876	2.65192
553.769	12.2377
556.661	12.5977
559.554	8.94687
562.447	13.4968
565.34	11.4985
568.232	6.38288
571.125	3.26371
574.018	2.4113
576.91	14.0653
579.803	5.37863
582.696	4.87409
585.588	2.27438
588.481	8.2934
591.374	15.08
594.266	8.27866
597.159	12.2843
600.052	10.4767
602.945	7.59512
605.837	12.9453
608.73	7.55837
611.623	11.2798
614.515	8.06626
617.408	4.1525
620.301	9.05379
623.193	9.89511
626.086	10.0157
628.979	7.39376
631.872	4.99286
634.764	12.4157
637.657	8.13361
640.55	5.64066
643.442	10.0319
646.335	8.22868
649.228	5.00176
652.12	16.1237
655.013	2.86141
657.906	12.6393
660.799	9.48988
663.691	6.02414
666.584	2.90152
669.477	7.33098
672.369	0.667641
675.262	8.80873
678.155	15.4948
681.048	5.12572
683.94	17.83
686.833	6.67984
689.726	3.3418
692.618	6.22238
695.511	6.65995
698.404	10.0296
701.296	12.5289
704.189	7.49847
707.082	6.25098
709.975	11.0459
712.867	0.549034
715.76	14.2726
718.653	11.8814
721.545	13.1042
724.438	5.72877
727.331	12.2729
730.223	9.1018
733.116	11.0925
736.009	13.7613
738.902	3.49465
741.794	6.39517
744.687	10.3869
747.58	14.8668
750.472	6.13403
753.365	9.00474
756.258	10.5814
759.15	6.35162
762.043	2.72913
764.936	3.65004
767.828	9.35574
770.721	7.56663
773.614	6.5966
776.507	13.4428
779.399	12.9495
782.292	2.73423
785.185	14.8417
788.077	5.51648
790.97	14.9224
793.863	8.97134
796.755	10.8431
799.648	0.428909
802.541	5.29484
805.434	16.3121
808.326	0.089424
811.219	8.86568
814.112	18.443
817.004	12.3524
819.897	1.70962
822.79	14.9983
825.683	6.83444
828.575	6.37425
831.468	12.7862
834.361	8.13644
837.253	4.97558
840.146	6.10445
843.039	6.82452
845.931	3.79185
848.824	6.5424
851.717	2.87302
854.61	5.22659
857.502	10.7559
860.395	1.35702
863.288	12.1599
866.18	12.7684
869.073	13.7851
871.966	3.81934
874.858	10.8596
877.751	15.4289
880.644	16.0441
883.537	3.63528
886.429	8.36545
889.322	13.373
892.215	1.07185
895.107	13.5994
898	10.5233
900.893	12.5048
903.785	3.38287
906.678	1.65086
909.571	12.1151
912.463	2.89418
915.356	12.4622
918.249	13.4374
921.142	14.189
924.034	12.4717
926.927	19.4533
929.82	9.87123
932.712	13.637
935.605	6.27647
938.498	20.1506
941.39	1.20134
944.283	7.90311
947.176	5.73294
950.069	8.51442
952.961	10.1454
955.854	23.0446
958.747	2.90408
961.639	14.5339
964.532	7.48711
967.425	11.6203
970.317	9.41357
973.21	10.1831
976.103	0.462555
978.996	10.8218
981.888	16.9568
984.781	7.23772
987.674	12.9424
990.566	4.13049
993.459	10.5963
996.352	7.66145
999.245	19.5733
1002.14	10.3047
1005.03	9.79218
1007.92	17.9368
1010.82	5.92383
1013.71	9.51103
1016.6	4.82745
1019.49	8.32497
1022.39	15.3557
1025.28	9.88222
1028.17	2.09794
1031.06	19.7775
1033.96	5.98568
1036.85	2.01741
1039.74	4.82478
1042.63	9.4958
1045.53	12.6518
1048.42	16.3633
1051.31	0.847427
1054.21	10.8994
1057.1	12.3622
1059.99	9.03257
1062.88	11.5602
1065.78	13.2501
1068.67	11.7082
1071.56	11.2833
1074.45	14.0544
1077.35	14.4534
1080.24	3.57443
1083.13	15.6264
1086.03	16.2902
1088.92	8.79668
1091.81	0.711205
1094.7	6.99037
1097.6	14.0852
1100.49	7.41587
1103.38	15.808
1106.27	14.89
1109.17	9.39601
1112.06	3.90049
1114.95	9.76816
1117.85	1.93125
1120.74	9.76248
1123.63	5.52038
1126.52	14.8719
1129.42	15.1483
1132.31	9.86076
1135.2	18.1456
1138.09	12.6667
1140.99	9.88314
1143.88	9.97263
1146.77	6.35371
1149.66	2.41965
1152.56	13.7409
1155.45	12.0323
1158.34	8.16755
1161.24	0.555664
1164.13	9.63346
1167.02	8.87434
1169.91	1.86232
1172.81	1.64187
1175.7	0.877121
1178.59	4.58031
1181.48	1.30727
1184.38	10.6935
1187.27	1.52025
1190.16	8.24774
1193.06	9.837
1195.95	13.5685
1198.84	2.52135
1201.73	15.033
1204.63	14.5923
1207.52	6.00134
1210.41	9.60951
1213.3	3.53214
1216.2	6.02717
1219.09	13.8785
1221.98	14.1808
1224.88	5.78245
1227.77	18.543
1230.66	2.37525
1233.55	6.38744
1236.45	10.223
1239.34	9.83431
1242.23	7.69629
