Measurement: Raman, 532 nm, unoriented, Raman Data Processed
Mineral: Malanite
Rruff sample: R070051
Ideal chemistry: Cu^1+^(Ir^3+^Pt^4+^)S^2-^_4_
Locality: placer from Philipp Massif, Kamchatka, Russia
Source: Michael Scott
Description: Silver gray metallic polished fragment embedded in epoxy
Raman shift (cm-1)	intensity
159.397	0
162.29	136.149
165.183	118.674
168.075	91.6841
170.968	38.0722
173.861	55.1753
176.754	54.9823
179.646	52.3624
182.539	12.3565
185.432	11.3483
188.324	15.1525
191.217	7.91333
194.11	15.7586
197.002	56.7046
199.895	5.27603
202.788	32.4815
205.68	46.1088
208.573	61.2258
211.466	44.4459
214.359	76.4535
217.251	32.4597
220.144	46.4097
223.037	52.2517
225.929	24.0618
228.822	33.4901
231.715	9.01444
234.607	5.54517
237.5	25.5056
240.393	20.9033
243.286	45.2999
246.178	26.7252
249.071	13.8749
251.964	25.2531
254.856	33.4563
257.749	5.93842
260.642	21.2179
263.534	41.0841
266.427	17.6139
269.32	32.5352
272.213	2.6208
275.105	46.3704
277.998	63.2728
280.891	47.9586
283.783	42.1069
286.676	34.1931
289.569	42.8271
292.462	41.2591
295.354	26.088
298.247	17.7861
301.14	13.4748
304.032	9.14742
306.925	3.10907
309.818	19.9795
312.71	17.5875
315.603	18.0849
318.496	2.75069
321.389	11.976
324.281	4.92964
327.174	6.04491
330.067	11.2956
332.959	9.19328
335.852	5.08672
338.745	5.2683
341.637	16.259
344.53	22.2062
347.423	14.168
350.315	7.81841
353.208	0.62146
356.101	13.3986
358.994	3.70572
361.886	8.48448
364.779	2.7883
367.672	8.63214
370.564	2.58026
373.457	3.69556
376.35	0.130997
379.243	16.1299
382.135	16.5662
385.028	8.44327
387.921	3.27397
390.813	6.55519
393.706	5.09036
396.599	18.1958
399.491	6.06094
402.384	5.50204
405.277	7.31697
408.17	11.4844
411.062	13.8015
413.955	6.78813
416.848	14.306
419.74	2.4541
422.633	11.2357
425.526	17.0722
428.418	12.1602
431.311	10.4036
434.204	5.82982
437.096	15.9835
439.989	11.8417
442.882	18.3156
445.775	19.1103
448.667	8.84294
451.56	6.74519
454.453	11.9491
457.345	12.7463
460.238	15.6438
463.131	20.3474
466.024	16.2541
468.916	11.6524
471.809	4.97646
474.702	10.9827
477.594	18.3252
480.487	10.5461
483.38	9.57387
486.272	25.538
489.165	12.3478
492.058	22.7302
494.95	15.1456
497.843	15.9916
500.736	19.8322
503.629	25.6892
506.521	8.97021
509.414	11.6883
512.307	15.0158
515.199	9.92976
518.092	0.845856
520.985	11.3044
523.878	7.63818
526.77	7.47392
529.663	13.6693
532.556	7.91553
535.448	20.0802
538.341	18.3422
541.234	18.572
544.126	21.4469
547.019	15.5352
549.912	11.3599
552.804	13.4737
555.697	6.21257
558.59	16.4309
561.482	12.0762
564.375	11.9407
567.268	11.3012
570.161	4.24057
573.053	5.39766
575.946	3.61317
578.839	25.0588
581.731	0.213821
584.624	5.45961
587.517	15.3931
590.409	14.4799
593.302	6.67909
596.195	12.6507
599.088	27.0455
601.98	9.25838
604.873	25.4691
607.766	19.445
610.658	5.00263
613.551	5.29706
616.444	8.73093
619.337	10.9351
622.229	13.6176
625.122	7.82188
628.015	8.27866
630.907	16.3506
633.8	8.49542
636.693	8.51456
639.585	3.52777
642.478	17.4418
645.371	20.287
648.264	11.1073
651.156	15.5021
654.049	21.6533
656.942	9.10994
659.834	5.43845
662.727	8.36497
665.62	9.64293
668.513	10.302
671.405	12.9844
674.298	9.60767
677.191	7.68594
680.083	13.427
682.976	15.4366
685.869	11.9999
688.761	7.0222
691.654	16.558
694.547	19.7637
697.439	10.8028
700.332	3.00824
703.225	12.0838
706.118	11.6016
709.01	5.58769
711.903	15.3987
714.796	7.85747
717.688	0.620911
720.581	15.7044
723.474	14.3251
726.366	6.01211
729.259	14.4477
732.152	1.0699
735.045	8.04086
737.937	13.4879
740.83	19.6296
743.723	18.5051
746.615	11.6158
749.508	7.29616
752.401	13.0053
755.293	25.0678
758.186	0.731659
761.079	15.3791
763.972	20.3401
766.864	4.46371
769.757	24.2193
772.65	11.2379
775.542	14.0121
778.435	16.1136
781.328	2.41415
784.221	16.9122
787.113	10.818
790.006	20.4675
792.899	16.3873
795.791	14.8657
798.684	2.4561
801.577	16.9367
804.469	0.083771
807.362	20.9783
810.255	11.1311
813.148	8.60771
816.04	6.1589
818.933	7.62676
821.826	14.9277
824.718	3.07677
827.611	10.6816
830.504	7.03599
833.396	6.0858
836.289	4.53824
839.182	6.65962
842.074	25.8971
844.967	0.838959
847.86	13.0617
850.753	21.6922
853.645	7.69055
856.538	12.4566
859.431	20.8374
862.323	10.9947
865.216	14.427
868.109	31.0039
871.001	5.00613
873.894	10.7219
876.787	11.4924
879.68	14.7077
882.572	11.179
885.465	17.5244
888.358	3.35912
891.25	4.6528
894.143	19.08
897.036	11.6631
899.928	4.34225
902.821	20.2749
905.714	17.3912
908.607	2.62169
911.499	10.8688
914.392	12.1462
917.285	19.2829
920.177	0.014709
923.07	1.586
925.963	23.4612
928.856	14.303
931.748	7.34874
934.641	2.07379
937.534	8.76003
940.426	13.9427
943.319	2.31233
946.212	8.94522
949.104	11.7539
951.997	11.0728
954.89	15.7665
957.783	3.58473
960.675	9.33412
963.568	3.40845
966.461	11.1994
969.353	7.05725
972.246	1.45845
975.139	24.0544
978.031	7.56515
980.924	5.30618
983.817	22.2088
986.71	10.5701
989.602	13.0309
992.495	12.5162
995.388	16.4166
998.28	18.5548
1001.17	11.7981
1004.07	2.33162
1006.96	3.14818
1009.85	6.82227
1012.74	16.2049
1015.64	11.0847
1018.53	15.8509
1021.42	16.7741
1024.32	2.59894
1027.21	25.0638
1030.1	11.6565
1032.99	0.038849
1035.88	17.7436
1038.78	19.1562
1041.67	16.7564
1044.56	12.0928
1047.46	24.7232
1050.35	26.5
1053.24	21.172
1056.13	21.3571
1059.03	12.0479
1061.92	22.9538
1064.81	15.1876
1067.7	16.8178
1070.6	4.17131
1073.49	6.26201
1076.38	14.7973
1079.28	17.1392
1082.17	22.5655
1085.06	19.7898
1087.95	15.1827
1090.85	7.19342
1093.74	15.9722
1096.63	1.77985
1099.53	24.8483
1102.42	18.9117
1105.31	20.1953
1108.2	21.0887
1111.1	8.47446
1113.99	0.33728
1116.88	23.8432
1119.77	19.2007
1122.67	16.5172
1125.56	28.1502
1128.45	3.71083
1131.34	5.70804
1134.24	12.1074
1137.13	15.748
1140.02	6.69356
1142.91	11.3089
1145.81	16.6303
1148.7	12.9559
1151.59	31.4494
1154.49	12.8234
1157.38	22.0992
1160.27	15.6321
1163.16	17.5731
1166.06	19.6051
1168.95	15.6851
1171.84	11.9994
1174.73	24.7126
1177.63	11.6194
1180.52	0.182159
1183.41	14.3916
1186.31	15.4455
1189.2	19.9207
1192.09	20.7741
1194.98	9.58305
1197.88	0.117661
1200.77	13.5761
1203.66	33.7767
1206.56	12.1427
1209.45	7.83591
1212.34	9.49707
1215.23	12.3656
1218.12	23.9953
1221.02	10.5249
1223.91	11.9521
1226.8	12.4225
1229.7	19.9806
1232.59	28.3652
1235.48	20.1153
1238.37	10.2792
1241.27	12.9645
1244.16	0
