Measurement: Raman, 532 nm, unoriented, Raman Data Processed
Mineral: Mangano-mangani-ungarettiite
Rruff sample: R050244
Ideal chemistry: NaNa_2_(Mn^2+^_2_Mn^3+^_3_)Si_8_O_22_O_2_
Locality: Hoskins mine, near Grenfell, New South Wales, Australia
Source: Marcus Origlieri
Description: Dark red granular, associated with namansilite, R070006
Measured chemistry: Na_1.00_Na_2.00_(Mn^2+^_2.00_(Mn^3+^_2.35_Fe^3+^_0.63_Al_0.02_)_Î£=3_)Si_8.00_O_22_O_2_
Raman shift (cm-1)	intensity
158.377	3301.62
161.751	3528.2
165.126	3858.5
168.501	4185.84
171.876	4329.28
175.251	4089.36
178.625	3899.47
182	3755.04
185.375	3724.69
188.75	3739.91
192.125	3721.43
195.5	3866.72
198.874	3997.19
202.249	4181.27
205.624	4253.71
208.999	4367.61
212.374	4467.6
215.749	4584.4
219.123	4484.47
222.498	4381.99
225.873	4382.79
229.248	4174.85
232.623	4122.31
235.997	4051.94
239.372	4117.48
242.747	4070.3
246.122	4049.71
249.497	4015.89
252.871	3935.34
256.246	3947.35
259.621	3989.94
262.996	3970.76
266.371	3959.39
269.746	4007.6
273.12	4071.96
276.495	4266.24
279.87	4297.7
283.245	4382.28
286.62	4420.1
289.995	4393.91
293.369	4414.31
296.744	4342.07
300.119	4323.81
303.494	4303.58
306.869	4217.97
310.243	4172.65
313.618	4132.22
316.993	4029.35
320.368	3961.97
323.743	3946.45
327.118	3926
330.492	3872.31
333.867	3857.12
337.242	3864.84
340.617	3810.36
343.992	3792.97
347.366	3737.97
350.741	3717.23
354.116	3649.75
357.491	3713.4
360.866	3720.52
364.24	3834.63
367.615	3746.66
370.99	3746.82
374.365	3820.42
377.74	3852.77
381.115	3858.44
384.489	3908.79
387.864	3908.4
391.239	3947.28
394.614	3964.63
397.989	4068.17
401.363	4138.8
404.738	4197.32
408.113	4132.7
411.488	4220.38
414.863	4261.72
418.238	4224.94
421.613	4164.35
424.987	4140.46
428.362	4157.99
431.737	4141.93
435.112	4201.43
438.486	4246.95
441.861	4351.94
445.236	4476.78
448.611	4543.46
451.986	4687.49
455.361	4683.79
458.735	4645.61
462.11	4651.51
465.485	4537.61
468.86	4567.06
472.235	4527.98
475.61	4586.57
478.984	4536.46
482.359	4450.87
485.734	4418.57
489.109	4436.62
492.484	4408.52
495.858	4455.29
499.233	4465.19
502.608	4630.99
505.983	4762.95
509.358	4898.76
512.732	5066.57
516.107	5200.79
519.482	5257.66
522.857	5326.13
526.232	5397.3
529.607	5426.99
532.981	5477.63
536.356	5377.8
539.731	5434.58
543.106	5415.87
546.481	5519.47
549.856	5556.73
553.23	5763.21
556.605	5908.9
559.98	6092.86
563.355	6150.6
566.73	6151.9
570.104	6252.07
573.479	6108.42
576.854	6085.68
580.229	5858.61
583.604	5708.62
586.979	5630.1
590.353	5367.41
593.728	5376.26
597.103	5261.65
600.478	5266.02
603.853	5113.4
607.227	5115.14
610.602	5045.85
613.977	5050.83
617.352	5047.28
620.727	4972.09
624.102	4907.1
627.476	4839.02
630.851	4654.43
634.226	4576.69
637.601	4423.35
640.976	4202.69
644.351	4144.7
647.725	4119.43
651.1	3948.06
654.475	3950.05
657.85	3903.4
661.225	3843.59
664.599	3801.98
667.974	3813.5
671.349	3841.12
674.724	3958.94
678.099	3996.29
681.473	4023.7
684.848	3957.08
688.223	3819.79
691.598	3732.7
694.973	3612.87
698.347	3467.82
701.722	3416.47
705.097	3416.91
708.472	3398.49
711.847	3354.15
715.222	3356.41
718.596	3315.59
721.971	3269.49
725.346	3250.14
728.721	3193.14
732.096	3153.26
735.471	3155.61
738.845	3139.17
742.22	3090.52
745.595	3105.8
748.97	3118.88
752.345	3096.89
755.72	3064.44
759.094	3012.87
762.469	3069.41
765.844	2981.27
769.219	3020.44
772.594	3010.31
775.968	3000.88
779.343	2984.97
782.718	2988.8
786.093	3003.55
789.468	2932.75
792.842	3015.92
796.217	3006.53
799.592	3018.7
802.967	3020.2
806.342	3045.55
809.717	2994.34
813.091	3032.32
816.466	3040.21
819.841	3056.06
823.216	3031.27
826.591	3045.36
829.966	3061.08
833.34	3148.44
836.715	3128.9
840.09	3160.55
843.465	3190.64
846.84	3137.55
850.214	3235.01
853.589	3276.12
856.964	3244.8
860.339	3176.28
863.714	3278.19
867.088	3362.58
870.463	3307.38
873.838	3377.25
877.213	3361.92
880.588	3341.48
883.963	3328.61
887.337	3311.12
890.712	3263.53
894.087	3320.33
897.462	3290.63
900.837	3322.43
904.212	3329.62
907.586	3212.2
910.961	3241.97
914.336	3283.56
917.711	3247.46
921.086	3276.45
924.46	3223.2
927.835	3331.84
931.21	3355.99
934.585	3386.83
937.96	3370.05
941.335	3451.42
944.709	3441.13
948.084	3452.34
951.459	3448.37
954.834	3477.83
958.209	3447.47
961.583	3459.55
964.958	3476.74
968.333	3503.95
971.708	3459.58
975.083	3457.42
978.457	3459.57
981.832	3512.45
985.207	3386.38
988.582	3448.34
991.957	3529.84
995.332	3455.74
998.706	3470.59
1002.08	3463.5
1005.46	3530.9
1008.83	3442.61
1012.21	3489.48
1015.58	3546.2
1018.96	3490.83
1022.33	3539.47
1025.7	3554.38
1029.08	3488.38
1032.45	3487.54
1035.83	3484.29
1039.2	3573.4
1042.58	3519.99
1045.95	3534.59
1049.33	3568.95
1052.7	3611.49
1056.08	3533.38
1059.45	3613.54
1062.83	3658.09
1066.2	3723.89
1069.58	3652.64
1072.95	3645.28
1076.33	3538.06
1079.7	3571.11
1083.08	3572.95
1086.45	3643.33
1089.83	3553.39
1093.2	3526.43
1096.58	3589.04
1099.95	3565.44
1103.33	3552.45
1106.7	3390.8
1110.08	3467.47
1113.45	3457.5
1116.83	3418.18
1120.2	3400.32
1123.58	3413.37
1126.95	3380.29
1130.32	3312.83
1133.7	3304.76
1137.07	3332.17
1140.45	3275.67
1143.82	3295.98
1147.2	3246.26
1150.57	3229.07
1153.95	3251.62
1157.32	3250.9
1160.7	3196.16
1164.07	3177.65
1167.45	3232.73
1170.82	3240.14
1174.2	3194.93
1177.57	3262.12
1180.95	3223.48
1184.32	3170.62
1187.7	3281.52
1191.07	3183.67
1194.45	3268.94
1197.82	3297.61
1201.19	3245.96
1204.57	3205.65
1207.94	3241.34
1211.32	3307.26
1214.69	3269.58
1218.07	3330.12
1221.44	3257.21
1224.82	3260.75
1228.19	3282.08
1231.57	3293.3
1234.94	3327.13
1238.32	3194.64
1241.69	3320.57
1245.07	3269.87
1248.44	3278.84
1251.82	3295.22
1255.19	3263.49
1258.57	3232.39
1261.94	3252.26
1265.32	3337.93
1268.69	3215.1
1272.07	3369.34
1275.44	3289.57
1278.82	3303.64
1282.19	3385.28
1285.57	3320.11
1288.94	3396.95
1292.32	3366.13
1295.69	3312.81
1299.07	3338.85
1302.44	3372.38
1305.82	3373.12
1309.19	3374.32
1312.56	3357.09
1315.94	3366.45
