Measurement: Raman, 785 nm, unoriented, Raman Data Processed
Mineral: Manganosite
Rruff sample: R060757
Ideal chemistry: Mn^2+^O
Locality: Nordmark, Sweden
Source: Michael Scott
Description: Dark green crystals
Measured chemistry: (Mn^2+^_0.99_Mg_0.01_)_Î£=1_O
Raman shift (cm-1)	intensity
165.4	0
168.293	20.46
171.186	137.74
174.078	117.467
176.971	214.524
179.864	283.54
182.757	312.626
185.649	280.828
188.542	177.662
191.435	44.538
194.327	72.114
197.22	29.22
200.113	10.684
203.005	62.913
205.898	127.661
208.791	232.317
211.684	287.233
214.576	275.969
217.469	321.65
220.362	347.711
223.254	303.019
226.147	324.72
229.04	333.718
231.932	242.502
234.825	221.798
237.718	180.725
240.611	153.07
243.503	113.092
246.396	97.556
249.289	119.034
252.181	42.306
255.074	28.618
257.967	24.903
260.859	118.826
263.752	157.351
266.645	221.776
269.538	175.628
272.43	179.456
275.323	179.585
278.216	208.25
281.108	278.269
284.001	309.195
286.894	332.531
289.786	267.726
292.679	264.538
295.572	356.682
298.465	360.746
301.357	434.708
304.25	461.964
307.143	438.342
310.035	452.189
312.928	325.711
315.821	260.177
318.713	225.061
321.606	108.348
324.499	67.359
327.392	104.323
330.284	63.656
333.177	43.36
336.07	3.217
338.962	24.363
341.855	34.58
344.748	27.091
347.64	2.777
350.533	25.484
353.426	21.588
356.319	36.354
359.211	127.752
362.104	118.351
364.997	90.046
367.889	115.49
370.782	78.54
373.675	102.611
376.567	85.17
379.46	70.05
382.353	111.166
385.246	155.184
388.138	153.126
391.031	177.74
393.924	141.021
396.816	143.26
399.709	163.65
402.602	105.419
405.494	152.085
408.387	135.104
411.28	98.886
414.172	137.483
417.065	34.719
419.958	79.163
422.851	12.256
425.743	36.65
428.636	71.068
431.529	80.716
434.421	197.031
437.314	165.173
440.207	305.904
443.099	349.655
445.992	429.175
448.885	504.267
451.778	580.233
454.67	669.11
457.563	744.533
460.456	886.994
463.348	992.401
466.241	1071.01
469.134	1173.69
472.026	1196.93
474.919	1256.92
477.812	1368.63
480.705	1418.13
483.597	1516.82
486.49	1526.73
489.383	1674.58
492.275	1748.79
495.168	1765.46
498.061	1735.77
500.953	1766.68
503.846	1718.19
506.739	1761.16
509.632	1769.16
512.524	1744.76
515.417	1730.53
518.31	1676.89
521.202	1645.31
524.095	1668.29
526.988	1622.94
529.88	1639.58
532.773	1537.42
535.666	1478.36
538.559	1519.63
541.451	1430.24
544.344	1415.51
547.237	1340.12
550.129	1269.39
553.022	1236.49
555.915	1159.45
558.807	1152.45
561.7	1069.85
564.593	1033.98
567.486	1003.43
570.378	953.885
573.271	886.942
576.164	937.135
579.056	901.954
581.949	889.513
584.842	893.071
587.734	864.855
590.627	898.455
593.52	897.168
596.413	1024.44
599.305	1071.5
602.198	1136.61
605.091	1201.43
607.983	1263.29
610.876	1357.48
613.769	1346.14
616.661	1316.8
619.554	1326.46
622.447	1283.82
625.34	1213.08
628.232	1194.81
631.125	1203.97
634.018	1171.56
636.91	1176.54
639.803	1097.77
642.696	1143.76
645.589	1102.48
648.481	1092.7
651.374	1047.7
654.267	1098.98
657.159	1053.16
660.052	1018.35
662.945	898.05
665.837	720.627
668.73	648.071
671.623	513.334
674.516	463.493
677.408	398.193
680.301	353.796
683.194	268.594
686.086	218.445
688.979	106.917
691.872	112.913
694.764	89.795
697.657	81.146
700.55	30.435
703.443	7.145
706.335	23.998
709.228	24.183
712.121	73.059
715.013	70.887
717.906	96.208
720.799	42.408
723.691	88.967
726.584	83.04
729.477	121.629
732.37	60.543
735.262	76.451
738.155	109.199
741.048	124.879
743.94	79.24
746.833	75.67
749.726	94.108
752.618	5.938
755.511	15.092
758.404	36.193
761.297	29.454
764.189	9.839
767.082	1.682
769.975	37.82
772.867	77.889
775.76	71.654
778.653	87.155
781.545	55.242
784.438	72.389
787.331	89.157
790.224	87.361
793.116	140.881
796.009	113.25
798.902	71.512
801.794	28.683
804.687	63.787
807.58	59.213
810.472	79.948
813.365	36.444
816.258	73.966
819.151	82.032
822.043	57.53
824.936	26.97
827.829	37.969
830.721	19.93
833.614	0.634
836.507	5.4
839.399	4.067
842.292	7.466
845.185	58.585
848.078	43.829
850.97	1.755
853.863	14.424
856.756	8.484
859.648	3.498
862.541	87.59
865.434	88.183
868.326	113.418
871.219	172.569
874.112	231.029
877.005	211.862
879.897	251.85
882.79	343.117
885.683	339.787
888.575	332.267
891.468	399.899
894.361	457.853
897.253	489.296
900.146	462.047
903.039	583.616
905.932	612.198
908.824	687.004
911.717	678.288
914.61	744.644
917.502	765.208
920.395	780.865
923.288	845.827
926.18	926.856
929.073	897.361
931.966	963.603
934.859	1061.17
937.751	1068.03
940.644	1117.01
943.537	1183.09
946.429	1255.53
949.322	1303.39
952.215	1366.79
955.107	1385.79
958	1458.63
960.893	1512.75
963.786	1507.66
966.678	1556.61
969.571	1559.72
972.464	1640.84
975.356	1653.32
978.249	1663.83
981.142	1754.54
984.034	1756.26
986.927	1843.59
989.82	1834.44
992.713	1794.42
995.605	1856.98
998.498	1934.13
1001.39	1938.63
1004.28	2013.46
1007.18	2067.13
1010.07	2061.38
1012.96	2078.2
1015.85	2140.54
1018.75	2084.35
1021.64	2048.84
1024.53	2078.38
1027.42	2037.98
1030.32	2151.6
1033.21	2108.55
1036.1	2119.81
1039	2111.05
1041.89	2072.38
1044.78	2094.35
1047.67	2076.92
1050.57	1940.73
1053.46	1962.63
1056.35	1978.83
1059.24	1926.56
1062.14	1893.15
1065.03	1923.29
1067.92	1885.73
1070.82	1833.59
1073.71	1831.21
1076.6	1792.58
1079.49	1723.74
1082.39	1741.83
1085.28	1633.14
1088.17	1611.57
1091.06	1551.02
1093.96	1502.76
1096.85	1355.61
1099.74	1324.38
1102.63	1242.52
1105.53	1123.07
1108.42	956.99
1111.31	831.317
1114.21	699.321
1117.1	614.798
1119.99	460.871
1122.88	321.443
1125.78	208.377
1128.67	190.047
1131.56	79.824
1134.45	30.052
1137.35	32.579
1140.24	41.412
1143.13	57.039
1146.03	89.737
1148.92	90.854
1151.81	74.638
1154.7	83.739
1157.6	96.545
1160.49	93.709
1163.38	122.284
1166.27	126.312
1169.17	110.262
1172.06	83.252
1174.95	79.422
1177.85	89.303
1180.74	67.439
1183.63	87.481
1186.52	51.417
1189.42	60.672
1192.31	70.684
1195.2	32.873
1198.09	33.363
1200.99	31.772
1203.88	35.464
1206.77	71.277
1209.66	16.128
1212.56	0.437
1215.45	16.674
1218.34	18.745
1221.24	13.291
1224.13	1.027
1227.02	2.039
1229.91	30.899
1232.81	10.759
1235.7	8.068
1238.59	92.612
1241.48	27.143
1244.38	22.8
1247.27	51.109
1250.16	45.551
1253.06	63.082
1255.95	43.696
1258.84	31.267
1261.73	9.772
1264.63	1.24
1267.52	2.781
