Measurement: Raman, 785 nm, unoriented, Raman Data Processed
Mineral: Manganilvaite
Rruff sample: R070334
Ideal chemistry: CaFe^2+^Fe^3+^Mn^2+^(Si_2_O_7_)O(OH)
Locality: First Sovetskiy mine, Dalnegorsk, Far East of Russia
Source: Michael Scott
Description: Black prismatic crystal
Raman shift (cm-1)	intensity
159.589	0
162.481	0.057007
165.374	40.9227
168.267	52.2202
171.16	36.9016
174.052	57.3217
176.945	28.8921
179.838	19.0034
182.73	23.1077
185.623	30.3065
188.516	53.6452
191.408	74.5745
194.301	61.252
197.194	72.7351
200.087	98.8387
202.979	104.966
205.872	106.22
208.765	85.2427
211.657	87.5048
214.55	77.2769
217.443	114.28
220.335	102.87
223.228	127.634
226.121	103.345
229.013	113.287
231.906	85.1879
234.799	42.9838
237.692	62.7505
240.584	24.5682
243.477	37.7669
246.37	42.984
249.262	16.8917
252.155	46.9617
255.048	36.0858
257.941	59.4626
260.833	67.6207
263.726	102.579
266.619	119.301
269.511	145.373
272.404	123.32
275.297	151.332
278.19	118.699
281.082	114.135
283.975	77.3671
286.868	45.152
289.76	33.7238
292.653	16.6231
295.546	2.32086
298.438	1.69849
301.331	12.0114
304.224	20.2327
307.116	12.7147
310.009	11.5554
312.902	3.42731
315.795	10.6682
318.687	11.8563
321.58	6.74133
324.473	11.2701
327.365	28.9485
330.258	36.7863
333.151	15.6702
336.043	38.7031
338.936	11.3473
341.829	45.4872
344.721	9.91455
347.614	11.2538
350.507	5.52252
353.4	16.5753
356.292	20.7485
359.185	24.4514
362.078	4.86145
364.97	16.099
367.863	8.83032
370.756	22.2624
373.649	35.9294
376.541	20.7056
379.434	5.48645
382.327	19.8789
385.219	10.6296
388.112	16.5388
391.005	21.8868
393.897	14.6844
396.79	30.5331
399.683	41.5405
402.575	1.16333
405.468	31.2673
408.361	22.1852
411.254	32.6391
414.146	24.7716
417.039	40.5403
419.932	28.5059
422.824	22.5963
425.717	2.62665
428.61	26.1757
431.502	13.2386
434.395	22.5242
437.288	28.5406
440.181	11.5185
443.073	13.2135
445.966	42.4932
448.859	6.0733
451.751	17.0195
454.644	7.97833
457.537	20.9913
460.43	1.33917
463.322	2.07513
466.215	14.5484
469.108	24.8381
472	6.40613
474.893	23.3663
477.786	10.3138
480.678	17.8159
483.571	17.7051
486.464	14.8079
489.356	10.1418
492.249	22.1992
495.142	18.3733
498.035	16.9341
500.927	17.2983
503.82	24.529
506.713	11.379
509.605	17.7128
512.498	13.0203
515.391	36.8061
518.284	22.066
521.176	37.9351
524.069	17.6189
526.962	37.0331
529.854	32.8892
532.747	36.6873
535.64	0.253845
538.533	28.1227
541.425	20.3117
544.318	25.4661
547.211	9.01294
550.103	22.3752
552.996	9.95184
555.889	33.6585
558.781	26.7557
561.674	6.33917
564.567	17.2266
567.459	25.7333
570.352	24.218
573.245	20.9695
576.138	24.28
579.03	20.8967
581.923	46.19
584.816	34.1471
587.708	22.5347
590.601	32.6144
593.494	14.8317
596.386	22.4456
599.279	25.2763
602.172	0.406311
605.064	2.8125
607.957	1.54486
610.85	6.18671
613.743	18.639
616.635	14.2527
619.528	3.61993
622.421	15.2408
625.313	4.77942
628.206	5.90784
631.099	8.07727
633.991	12.2176
636.884	11.285
639.777	8.47324
642.67	32.3836
645.562	22.5373
648.455	15.6225
651.348	10.2953
654.24	12.901
657.133	34.801
660.026	6.94913
662.918	15.1526
665.811	16.6831
668.704	27.4479
671.597	35.0969
674.489	8.43314
677.382	1.86179
680.275	20.5293
683.167	19.6639
686.06	26.1653
688.953	38.7109
691.846	33.9147
694.738	46.1577
697.631	37.2402
700.524	46.051
703.416	26.0536
706.309	31.5228
709.202	10.4541
712.094	19.8865
714.987	27.7467
717.88	26.5767
720.773	33.2805
723.665	25.6155
726.558	9.74445
729.451	1.57294
732.343	4.75522
735.236	14.7812
738.129	26.5866
741.021	2.46463
743.914	16.7529
746.807	19.7761
749.699	0.360229
752.592	7.60657
755.485	7.44315
758.378	18.3417
761.27	7.21414
764.163	32.9316
767.056	1.73813
769.948	7.24405
772.841	9.49951
775.734	10.9727
778.626	3.39349
781.519	18.9858
784.412	22.8978
787.305	4.56787
790.197	11.4785
793.09	2.79373
795.983	23.5807
798.875	3.27878
801.768	12.8432
804.661	26.3311
807.553	17.5949
810.446	9.60346
813.339	15.8357
816.232	42.0159
819.124	22.988
822.017	12.5122
824.91	20.2918
827.802	6.84772
830.695	14.4107
833.588	17.486
836.481	32.241
839.373	7.32748
842.266	11.2578
845.159	1.22046
848.051	18.567
850.944	6.81628
853.837	21.2065
856.729	28.0186
859.622	11.9504
862.515	25.3071
865.408	17.752
868.3	24.1963
871.193	22.7285
874.086	33.267
876.978	17.2449
879.871	13.6402
882.764	6.62
885.656	13.5579
888.549	17.4928
891.442	16.4644
894.335	19.6805
897.227	9.86945
900.12	0.862366
903.013	20.3032
905.905	12.6024
908.798	1.2522
911.691	12.4104
914.583	6.64523
917.476	11.1284
920.369	11.3857
923.261	17.939
926.154	19.2674
929.047	17.5776
931.94	14.8454
934.832	20.9846
937.725	12.1659
940.618	15.4804
943.51	29.1649
946.403	19.1374
949.296	13.6527
952.188	4.51743
955.081	0.944824
957.974	7.8143
960.867	3.64832
963.759	26.7279
966.652	18.7105
969.545	18.7029
972.437	12.2355
975.33	23.6647
978.223	23.2301
981.115	36.721
984.008	14.7572
986.901	20.5122
989.794	34.0905
992.686	10.4471
995.579	20.746
998.472	28.1181
1001.36	21.3555
1004.26	29.3885
1007.15	15.5624
1010.04	15.0035
1012.93	33.5382
1015.83	22.668
1018.72	25.9104
1021.61	22.7528
1024.51	15.4353
1027.4	21.8057
1030.29	4.65765
1033.18	23.0716
1036.08	9.36401
1038.97	22.9636
1041.86	25.4264
1044.76	15.0297
1047.65	26.4764
1050.54	33.5053
1053.43	6.89902
1056.33	4.12323
1059.22	18.894
1062.11	21.9247
1065	11.233
1067.9	1.65799
1070.79	11.4742
1073.68	19.9383
1076.58	16.1346
1079.47	3.99741
1082.36	23.0674
1085.25	13.7055
1088.14	0.425568
1091.04	19.1207
1093.93	11.6172
1096.82	10.9058
1099.72	2.46918
1102.61	14.5655
1105.5	25.6744
1108.39	3.91391
1111.29	18.8062
1114.18	9.21069
1117.07	1.54807
1119.96	1.70752
1122.86	44.3805
1125.75	12.1383
1128.64	11.8781
1131.54	9.47925
1134.43	1.57996
1137.32	11.0006
1140.21	9.30307
1143.11	1.10288
1146	21.3137
1148.89	18.1207
1151.79	6.40695
1154.68	7.06778
1157.57	8.25626
1160.46	15.7945
1163.36	22.7736
1166.25	18.3831
1169.14	2.34726
1172.03	20.2113
1174.93	19.9684
1177.82	8.72818
1180.71	14.1675
1183.6	19.1751
1186.5	28.2133
1189.39	19.4482
1192.28	12.5287
1195.17	26.7658
1198.07	13.3786
1200.96	28.744
1203.85	14.0255
1206.75	19.1177
1209.64	13.2633
1212.53	7.18756
1215.42	9.02573
1218.32	34.7472
1221.21	15.4993
1224.1	14.623
1226.99	11.8134
1229.89	0
