Measurement: Raman, 785 nm, unoriented, Raman Data Processed
Mineral: Mangano-mangani-ungarettiite
Rruff sample: R050244
Ideal chemistry: NaNa_2_(Mn^2+^_2_Mn^3+^_3_)Si_8_O_22_O_2_
Locality: Hoskins mine, near Grenfell, New South Wales, Australia
Source: Marcus Origlieri
Description: Dark red granular, associated with namansilite, R070006
Measured chemistry: Na_1.00_Na_2.00_(Mn^2+^_2.00_(Mn^3+^_2.35_Fe^3+^_0.63_Al_0.02_)_Î£=3_)Si_8.00_O_22_O_2_
Raman shift (cm-1)	intensity
138.184	64.1516
141.077	122.264
143.97	638.527
146.862	1345.3
149.755	1882.8
152.648	2064.3
155.54	1991.08
158.433	1959.63
161.326	2105.05
164.218	2330.74
167.111	2611.96
170.004	2807.45
172.897	2871.55
175.789	2781.06
178.682	2827.87
181.575	2747.51
184.467	2795.75
187.36	2718.5
190.253	2684.38
193.145	2605.9
196.038	2502.94
198.931	2444.88
201.823	2367.37
204.716	2339.78
207.609	2150.56
210.502	2076.03
213.394	1946.32
216.287	1757.25
219.18	1652.36
222.072	1572.07
224.965	1491.31
227.858	1323.69
230.75	1155.18
233.643	1099.28
236.536	1063.52
239.429	902.48
242.321	811.192
245.214	681.934
248.107	669.079
250.999	559.302
253.892	504.736
256.785	430.996
259.678	307.884
262.57	372.842
265.463	314.595
268.356	230.543
271.248	221.828
274.141	194.675
277.034	137.589
279.926	24.7979
282.819	100.393
285.712	128.387
288.605	138.193
291.497	74.7422
294.39	99.666
297.283	0.811523
300.175	0.833008
303.068	37.2451
305.961	20.7168
308.853	40.3418
311.746	20.9268
314.639	12.8018
317.531	10.3486
320.424	25.9307
323.317	34.542
326.21	61.7978
329.102	21.9414
331.995	17.7246
334.888	44.6914
337.78	7.39648
340.673	19.1074
343.566	12.0459
346.459	15.9043
349.351	88.4883
352.244	140.181
355.137	85.0078
358.029	95.7158
360.922	102.02
363.815	127.132
366.707	135.144
369.6	57.2627
372.493	175.915
375.385	137.373
378.278	158.92
381.171	181.141
384.064	130.349
386.956	78.7002
389.849	107.377
392.742	114.911
395.634	144.727
398.527	207.039
401.42	127.322
404.312	113.735
407.205	183.865
410.098	86.4697
412.991	118.714
415.883	150.811
418.776	118.418
421.669	107.259
424.561	123.653
427.454	46.8184
430.347	80.4707
433.24	84.458
436.132	94.2715
439.025	33.206
441.918	144.648
444.81	94.3242
447.703	138.299
450.596	60.1953
453.488	121.073
456.381	119.935
459.274	104.335
462.166	183.316
465.059	184.402
467.952	72.2764
470.845	127.739
473.737	156.919
476.63	32.1065
479.523	57.6934
482.415	48.1074
485.308	48.8594
488.201	5.65918
491.094	51.0293
493.986	144.076
496.879	107.402
499.772	9.34375
502.664	96.5996
505.557	69.5234
508.45	123.862
511.342	101.727
514.235	94.0869
517.128	203.542
520.021	167.008
522.913	266.192
525.806	120.331
528.699	206.316
531.591	131.785
534.484	218.71
537.377	96.6748
540.269	109.968
543.162	85.0527
546.055	76.0273
548.948	69.8984
551.84	124.051
554.733	92.7529
557.626	137.421
560.518	168.492
563.411	279.682
566.304	211.578
569.196	210.724
572.089	200.721
574.982	86.8125
577.875	170.183
580.767	143.54
583.66	199.423
586.553	44.2881
589.445	89.8223
592.338	137.116
595.231	8.55469
598.123	121.835
601.016	160.324
603.909	138.086
606.802	179.599
609.694	81.5205
612.587	141.352
615.48	153.654
618.372	70.9414
621.265	158.441
624.158	98.4434
627.05	141.307
629.943	198.815
632.836	164.193
635.729	77.9043
638.621	177.623
641.514	103.518
644.407	37.1719
647.299	52.877
650.192	26.584
653.085	3.55469
655.977	105.996
658.87	42.4746
661.763	7.79492
664.655	68.1992
667.548	72.25
670.441	70.5684
673.334	16.9492
676.226	137.303
679.119	93.6816
682.012	203.6
684.904	205.897
687.797	110.748
690.69	89.1465
693.582	177.662
696.475	95.0781
699.368	154.805
702.261	148.971
705.153	136.035
708.046	135.844
710.939	131.281
713.831	73.9414
716.724	118.535
719.617	43.3262
722.51	94.5547
725.402	59.0664
728.295	180.685
731.188	110.797
734.08	40.1953
736.973	64.6484
739.866	101.441
742.758	67.2539
745.651	23.1855
748.544	164.065
751.437	69.9707
754.329	65.3184
757.222	69.6074
760.115	81.7246
763.007	58.3672
765.9	31.2227
768.793	38.7793
771.685	45.377
774.578	122.228
777.471	75.9258
780.364	91.7871
783.256	128.182
786.149	33.791
789.042	36.6582
791.934	72.0137
794.827	5.40625
797.72	64.5801
800.612	140.014
803.505	22.832
806.398	34.8496
809.29	39.0645
812.183	84.9375
815.076	101.731
817.969	175.742
820.861	128.467
823.754	71.4707
826.647	84.4062
829.539	86.5391
832.432	12.2871
835.325	172.713
838.217	64.9121
841.11	80.666
844.003	128.287
846.896	132.467
849.788	174.295
852.681	165.397
855.574	159.203
858.466	143.025
861.359	143.533
864.252	198.205
867.144	171.602
870.037	173.367
872.93	170.779
875.823	101.398
878.715	180.303
881.608	102.732
884.501	100.676
887.393	110.535
890.286	18.4961
893.179	71.1934
896.072	125.014
898.964	70.7207
901.857	80.0898
904.75	64.2266
907.642	42.8633
910.535	191.215
913.428	19.0605
916.32	126.268
919.213	70.5469
922.106	78.0371
924.999	41.6465
927.891	3.76953
930.784	117.635
933.677	76.9062
936.569	76.6719
939.462	25.2832
942.355	31.0957
945.247	103.961
948.14	68.2168
951.033	80.1309
953.926	27.0996
956.818	96.9844
959.711	48.1895
962.604	78.2109
965.496	25.6738
968.389	42.793
971.282	57.7676
974.174	107.867
977.067	48.6426
979.96	70.4141
982.852	5.29102
985.745	185.861
988.638	91.5664
991.531	41.5566
994.423	68.8535
997.316	121.498
1000.21	43.8594
1003.1	105.906
1005.99	49.3633
1008.89	43.2695
1011.78	55.498
1014.67	67.9473
1017.57	119.057
1020.46	85.2852
1023.35	54.918
1026.24	73.6465
1029.14	10.8887
1032.03	9.125
1034.92	166.244
1037.81	72.8164
1040.71	27.541
1043.6	85.4981
1046.49	74.793
1049.38	3.09961
1052.28	55.8047
1055.17	97.8203
1058.06	63.5117
1060.95	66.7773
1063.85	143.488
1066.74	25.6914
1069.63	120.516
1072.53	170.242
1075.42	76.7051
1078.31	115.221
1081.2	35.7715
1084.1	117.244
1086.99	102.482
1089.88	111.035
1092.78	178.457
1095.67	14.3086
1098.56	104.004
1101.45	41.2344
1104.35	161.414
1107.24	178.277
1110.13	118.371
1113.02	62.1152
1115.92	46.8359
1118.81	122.4
1121.7	87.4609
1124.6	144.57
1127.49	22.7988
1130.38	45.8848
1133.27	72.3594
1136.17	53.7402
1139.06	55.5312
1141.95	126.303
1144.84	93.7871
1147.74	135.129
1150.63	99.6016
1153.52	104.959
1156.41	85.9375
1159.31	35.8926
1162.2	103.611
1165.09	34.5664
1167.98	114.391
1170.88	205.074
1173.77	44.3867
1176.66	49.6855
1179.56	149.207
1182.45	67.0254
1185.34	123.447
1188.23	118.91
1191.13	71.3262
1194.02	119.936
1196.91	88.5039
1199.81	54.3574
1202.7	89.8594
1205.59	26.873
1208.48	225.455
1211.38	142.375
1214.27	139.684
1217.16	133.545
1220.05	161.475
1222.95	11.4785
1225.84	283.059
1228.73	217.41
1231.62	89.9981
1234.52	151.584
1237.41	40.4629
1240.3	88.9102
1243.2	34.1895
