Measurement: Raman, 785 nm, unoriented, Raman Data Processed
Mineral: Manganohornesite
Rruff sample: R061005
Ideal chemistry: Mn^2+^_3_(As^5+^O_4_)_2_8H_2_O
Locality: Mossgruven, Nordmark, Sweden
Source: Michael Scott
Description: Aggregate of colorless platy crystals
Raman shift (cm-1)	intensity
176.489	0
179.382	16.6401
182.275	0.492432
185.167	27.0158
188.06	41.8945
190.953	9.19031
193.845	57.745
196.738	27.2523
199.631	56.3992
202.524	44.6222
205.416	45.5841
208.309	37.0443
211.202	25.6466
214.094	27.9321
216.987	45.767
219.88	15.8293
222.773	51.9595
225.665	73.2647
228.558	56.7256
231.451	49.5507
234.343	53.2992
237.236	54.2147
240.129	57.7014
243.021	35.8713
245.914	16.2537
248.807	20.6174
251.7	26.4657
254.592	24.094
257.485	20.9846
260.378	28.9517
263.27	16.1398
266.163	8.40723
269.056	66.3882
271.948	8.93005
274.841	23.1895
277.734	28.9358
280.627	31.4727
283.519	48.6748
286.412	21.2515
289.305	10.3506
292.197	22.7843
295.09	21.2635
297.983	1.86694
300.875	6.19116
303.768	54.8062
306.661	24.9878
309.553	58.7727
312.446	9.4397
315.339	13.4929
318.231	17.1526
321.124	5.26697
324.017	25.796
326.91	37.4477
329.802	38.2846
332.695	31.1834
335.588	28.7031
338.48	15.6006
341.373	21.6979
344.266	20.7981
347.159	67.4602
350.051	43.6467
352.944	42.011
355.837	33.3605
358.729	30.7548
361.622	36.3614
364.515	20.7498
367.407	29.3962
370.3	18.1081
373.193	65.5198
376.086	68.5569
378.978	45.5967
381.871	4.12036
384.764	31.1724
387.656	16.3347
390.549	23.8827
393.442	2.92786
396.334	60.4193
399.227	52.1631
402.12	3.66138
405.012	3.94763
407.905	33.7938
410.798	17.1396
413.691	2.93628
416.583	42.9762
419.476	43.8742
422.369	38.3428
425.261	42.4937
428.154	35.0205
431.047	23.6095
433.94	28.9886
436.832	29.2094
439.725	38.3629
442.618	43.6509
445.51	67.3359
448.403	43.6446
451.296	26.6367
454.188	29.1196
457.081	20.5056
459.974	38.5214
462.866	34.9868
465.759	19.0765
468.652	46.3408
471.545	19.855
474.437	2.96728
477.33	9.13171
480.223	3.65662
483.115	4.67273
486.008	31.4159
488.901	36.4053
491.793	17.8949
494.686	26.5156
497.579	18.2667
500.471	0.023926
503.364	30.2399
506.257	12.3077
509.15	20.2321
512.042	36.179
514.935	39.2448
517.828	18.2291
520.72	33.3356
523.613	23.2799
526.506	12.9453
529.399	54.3547
532.291	7.87463
535.184	19.1851
538.077	25.0585
540.969	33.8512
543.862	25.3663
546.755	6.24133
549.647	19.1672
552.54	6.95422
555.433	13.1699
558.326	13.7738
561.218	34.5526
564.111	24.158
567.004	16.8665
569.896	19.4276
572.789	0.192261
575.682	9.54492
578.574	19.533
581.467	18.7559
584.36	14.1508
587.253	23.2937
590.145	11.6165
593.038	3.46521
595.931	32.3603
598.823	7.85315
601.716	33.8511
604.609	9.23108
607.501	16.9683
610.394	43.3765
613.287	1.9187
616.179	10.1538
619.072	51.7982
621.965	41.9019
624.857	43.7638
627.75	37.0615
630.643	12.9083
633.536	9.2417
636.428	45.5742
639.321	60.7208
642.214	41.9038
645.106	40.7253
647.999	10.0454
650.892	63.6215
653.784	56.9724
656.677	70.537
659.57	36.2105
662.463	21.7789
665.355	50.5945
668.248	12.6937
671.141	26.1946
674.033	55.7469
676.926	27.4413
679.819	9.02271
682.712	7.46045
685.604	10.0866
688.497	4.46179
691.39	31.3003
694.282	24.2358
697.175	38.8528
700.068	68.1815
702.96	23.3555
705.853	45.3364
708.746	11.8502
711.639	20.1213
714.531	5.24915
717.424	26.6561
720.317	16.6551
723.209	16.5742
726.102	1.15247
728.995	2.01733
731.887	2.98389
734.78	20.7615
737.673	11.6739
740.566	13.8347
743.458	3.13025
746.351	11.2621
749.244	3.15442
752.136	23.0877
755.029	4.65076
757.922	15.9342
760.814	25.3931
763.707	20.8531
766.6	40.5941
769.492	31.1284
772.385	53.3813
775.278	10.6268
778.17	36.3442
781.063	54.0171
783.956	54.3426
786.849	35.9105
789.741	71.8333
792.634	86.1041
795.527	71.5374
798.419	91.5281
801.312	71.5772
804.205	63.7101
807.097	111.314
809.99	91.191
812.883	86.3513
815.776	112.797
818.668	124.368
821.561	57.5975
824.454	79.7993
827.346	73.1476
830.239	69.1038
833.132	59.3837
836.024	45.4058
838.917	55.0492
841.81	65.0008
844.703	77.4616
847.595	123.505
850.488	107.537
853.381	122.172
856.273	102.108
859.166	125.424
862.059	93.3156
864.952	87.2023
867.844	42.6664
870.737	46.567
873.63	27.382
876.522	15.0416
879.415	10.0601
882.308	20.7969
885.2	38.1569
888.093	5.11914
890.986	6.28503
893.879	11.2639
896.771	16.1619
899.664	43.1277
902.557	28.5435
905.449	20.0885
908.342	35.1239
911.235	21.9349
914.127	9.96143
917.02	19.7871
919.913	12.2777
922.806	17.296
925.698	1.44812
928.591	20.7828
931.484	16.5835
934.376	29.1969
937.269	8.52588
940.162	12.5175
943.054	10.386
945.947	2.58618
948.84	9.84424
951.732	11.6398
954.625	25.6174
957.518	13.463
960.41	24.2184
963.303	40.0173
966.196	40.9969
969.089	22.1803
971.981	25.58
974.874	25.0867
977.767	24.0169
980.659	19.0917
983.552	23.8984
986.445	0.949097
989.337	19.5602
992.23	22.3712
995.123	28.1582
998.016	23.6732
1000.91	28.7456
1003.8	21.0386
1006.69	31.1871
1009.59	17.4846
1012.48	8.02002
1015.37	17.1642
1018.26	37.5757
1021.16	19.4227
1024.05	1.10754
1026.94	4.13733
1029.84	34.5185
1032.73	32.4085
1035.62	40.8101
1038.51	10.4235
1041.41	20.9448
1044.3	33.7546
1047.19	38.548
1050.08	69.0352
1052.98	34.6704
1055.87	34.1355
1058.76	4.23498
1061.65	47.7129
1064.55	13.1578
1067.44	5.65588
1070.33	23.5666
1073.23	22.2876
1076.12	15.8171
1079.01	40.0612
1081.9	51.4238
1084.8	23.3964
1087.69	29.2688
1090.58	2.5625
1093.47	34.8317
1096.37	11.3479
1099.26	18.2466
1102.15	9.26941
1105.05	14.6022
1107.94	16.5719
1110.83	26.6206
1113.72	25.4071
1116.62	29.8304
1119.51	7.10644
1122.4	10.6099
1125.29	28.5243
1128.19	34.535
1131.08	25.2267
1133.97	18.6357
1136.87	17.7144
1139.76	17.4222
1142.65	30.0081
1145.54	6.25207
1148.44	9.99292
1151.33	17.9896
1154.22	39.775
1157.11	17.9717
1160.01	40.6921
1162.9	34.1221
1165.79	4.98987
1168.68	18.4176
1171.58	54.3916
1174.47	5.04663
1177.36	8.47559
1180.26	13.0305
1183.15	20.9777
1186.04	30.3469
1188.93	4.01099
1191.83	10.2988
1194.72	4.15747
1197.61	15.5144
1200.51	17.2604
1203.4	32.2023
1206.29	39.9722
1209.18	25.3284
1212.08	33.2263
1214.97	7.69226
1217.86	47.3102
1220.75	30.3023
1223.65	37.7505
1226.54	22.9198
1229.43	29.418
1232.32	40.4532
1235.22	21.7058
1238.11	11.0104
1241	0.620728
1243.89	3.48254
1246.79	56.8407
1249.68	44.3906
1252.57	20.0448
1255.47	8.38049
1258.36	0.185791
