Measurement: Raman, 532 nm, unoriented, Raman Data Processed
Mineral: Manganosite
Rruff sample: R060757
Ideal chemistry: Mn^2+^O
Locality: Nordmark, Sweden
Source: Michael Scott
Description: Dark green crystals
Measured chemistry: (Mn^2+^_0.99_Mg_0.01_)_Î£=1_O
Raman shift (cm-1)	intensity
150.45	0
153.342	1.35547
156.235	12.8127
159.128	75.3523
162.02	106.798
164.913	143.786
167.806	168.878
170.699	284.649
173.591	327.379
176.484	342.788
179.377	407.217
182.269	464.449
185.162	491.572
188.055	384.313
190.947	389.849
193.84	288.442
196.733	191.877
199.626	173.619
202.518	118.88
205.411	103.438
208.304	74.6506
211.196	75.0247
214.089	15.0796
216.982	25.6252
219.874	7.85449
222.767	11.1606
225.66	21.3413
228.553	2.61938
231.445	17.8377
234.338	35.6089
237.231	15
240.123	87.218
243.016	38.907
245.909	94.9863
248.801	83.384
251.694	96.2
254.587	154.478
257.48	170.039
260.372	200.819
263.265	242.421
266.158	264.981
269.05	237.315
271.943	276.338
274.836	257.947
277.728	258.488
280.621	274.485
283.514	271.979
286.406	292.262
289.299	283.834
292.192	322.041
295.085	291.842
297.977	346.614
300.87	341.129
303.763	322.918
306.655	351.914
309.548	323.056
312.441	296.594
315.333	255.056
318.226	159.4
321.119	175.244
324.012	141.421
326.904	71.7181
329.797	98.1379
332.69	105.14
335.582	78.8392
338.475	79.4179
341.368	88.6239
344.26	79.5813
347.153	69.5254
350.046	65.5691
352.939	84.2427
355.831	97.3306
358.724	60.0913
361.617	73.644
364.509	67.4586
367.402	57.3483
370.295	37.2565
373.188	55.0194
376.08	44.975
378.973	78.1624
381.866	54.9625
384.758	19.2429
387.651	36.3944
390.544	49.0754
393.436	17.1659
396.329	4.66321
399.222	7.90832
402.114	1.03235
405.007	1.23816
407.9	4.74597
410.793	10.4825
413.685	43.9451
416.578	3.17212
419.471	18.9518
422.363	14.0444
425.256	8.5719
428.149	7.36963
431.041	1.58191
433.934	50.8379
436.827	47.3509
439.72	82.0339
442.612	89.5984
445.505	122.743
448.398	147.162
451.29	157.549
454.183	193.508
457.076	220.003
459.968	280.838
462.861	273.629
465.754	289.347
468.647	307.35
471.539	337.456
474.432	393.426
477.325	394.266
480.217	381.554
483.11	421.322
486.003	431.613
488.895	440.467
491.788	444.117
494.681	422.146
497.573	368.872
500.466	415.048
503.359	443.481
506.252	396.676
509.144	388.954
512.037	357.892
514.93	370.286
517.822	309.016
520.715	350.947
523.608	352.231
526.5	372.127
529.393	355.613
532.286	315.035
535.179	294.315
538.071	319.012
540.964	336.523
543.857	284.041
546.749	284.136
549.642	227.887
552.535	226.846
555.427	159.955
558.32	152.653
561.213	127.444
564.106	103.987
566.998	65.7522
569.891	81.8652
572.784	31.0962
575.676	4.43848
578.569	15.5373
581.462	20.6081
584.354	45.3867
587.247	12.7439
590.14	9.97534
593.032	59.1851
595.925	58.8914
598.818	110.62
601.711	169.91
604.603	243.539
607.496	302.912
610.389	310.082
613.281	346.825
616.174	358.834
619.067	375.629
621.959	384.681
624.852	375.737
627.745	340.441
630.638	337.037
633.53	346.557
636.423	330.684
639.316	350.239
642.208	360.463
645.101	308.733
647.994	347.898
650.886	381.104
653.779	324.891
656.672	267.087
659.565	313.408
662.457	193.828
665.35	185.03
668.243	167.273
671.135	157.758
674.028	128.45
676.921	119.742
679.813	74.3752
682.706	90.8064
685.599	65.8298
688.492	42.0657
691.384	35.9268
694.277	25.9685
697.17	7.49951
700.062	36.4956
702.955	9.93701
705.848	6.64722
708.74	16.7095
711.633	25.5203
714.526	11.5928
717.419	2.29248
720.311	14.8972
723.204	48.7835
726.097	39.9641
728.989	58.6799
731.882	53.1311
734.775	34.5839
737.667	73.8132
740.56	46.7659
743.453	76.5164
746.346	120.871
749.238	178.878
752.131	170.965
755.024	191.945
757.916	262.697
760.809	263.663
763.702	302.493
766.594	332.528
769.487	311.827
772.38	325.612
775.273	365.194
778.165	347.951
781.058	379.081
783.951	387.023
786.843	389.722
789.736	387.578
792.629	394.48
795.521	415.021
798.414	446.023
801.307	426.294
804.2	401.054
807.092	439.058
809.985	466.983
812.878	418.906
815.77	407.778
818.663	416.092
821.556	363.506
824.448	329.759
827.341	319.668
830.234	302.365
833.127	245.119
836.019	227.996
838.912	174.514
841.805	146.566
844.697	46.6685
847.59	59.7952
850.483	76.7358
853.375	54.3091
856.268	13.2058
859.161	21.4973
862.054	46.9375
864.946	21.6016
867.839	3.58179
870.732	13.5129
873.624	15.0566
876.517	21.439
879.41	60.751
882.302	35.7087
885.195	71.835
888.088	42.8752
890.98	62.6387
893.873	51.9373
896.766	37.4805
899.659	28.187
902.551	20.9145
905.444	41.7366
908.337	17.1724
911.229	20
914.122	34.3091
917.015	6.54077
919.907	25.7241
922.8	38.7776
925.693	0.207764
928.586	33.4573
931.478	47.592
934.371	14.1589
937.264	5.78638
940.156	13.552
943.049	14.957
945.942	24.2554
948.834	18.6543
951.727	11.5207
954.62	2.71143
957.513	15.1328
960.405	20.3962
963.298	20.4968
966.191	110.763
969.083	55.3381
971.976	84.4092
974.869	76.8318
977.761	80.5273
980.654	78.5308
983.547	100.436
986.44	90.9356
989.332	152.63
992.225	141.045
995.118	124.586
998.01	155.595
1000.9	176.373
1003.8	215.128
1006.69	200.166
1009.58	261.565
1012.47	228.103
1015.37	287.373
1018.26	267.037
1021.15	285.061
1024.05	368.943
1026.94	332.863
1029.83	304.583
1032.72	360.639
1035.62	383.206
1038.51	378.334
1041.4	382.076
1044.29	410.438
1047.19	393.897
1050.08	413.264
1052.97	466.89
1055.86	460.202
1058.76	460.58
1061.65	477.841
1064.54	473.113
1067.43	541.668
1070.33	520.854
1073.22	557.164
1076.11	576.78
1079.01	613.129
1081.9	604.511
1084.79	628.545
1087.68	692.876
1090.58	725.457
1093.47	660.542
1096.36	663.698
1099.26	601.787
1102.15	615.369
1105.04	535.521
1107.93	476.583
1110.83	359.547
1113.72	305.087
1116.61	219.389
1119.5	165.834
1122.4	76.0001
1125.29	51.1975
1128.18	26.5563
1131.07	18.8904
1133.97	15.2585
1136.86	46.0669
1139.75	2.80566
1142.64	35.2327
1145.54	21.3699
1148.43	41.0344
1151.32	35.9701
1154.22	16.8082
1157.11	30.1325
1160	53.4027
1162.89	65.6746
1165.79	83.4815
1168.68	89.8059
1171.57	102.1
1174.46	177.975
1177.36	146.705
1180.25	170.029
1183.14	159.813
1186.04	184.965
1188.93	207.504
1191.82	201.16
1194.71	197.5
1197.61	200.794
1200.5	212.55
1203.39	168.315
1206.29	155.904
1209.18	159.652
1212.07	153.34
1214.96	166.854
1217.86	126.225
1220.75	94.1286
1223.64	106.21
1226.53	112.835
1229.43	113.469
1232.32	103.713
1235.21	106.106
1238.1	78.8001
1241	67.1039
1243.89	74.8106
1246.78	69.7643
1249.67	46.9121
1252.57	47.8283
1255.46	77.2851
1258.35	38.9942
1261.25	52.1202
1264.14	5.86789
1267.03	30.0817
1269.92	19.5033
1272.82	13.9673
1275.71	4.55695
1278.6	0
