Measurement: Raman, 785 nm, unoriented, Raman Data Processed
Mineral: Manganosite
Rruff sample: R060695
Ideal chemistry: Mn^2+^O
Locality: Franklin, New Jersey, USA
Source: Bob Jenkins
Description: Dark green coarse prismatic crystals associated with calcite and red zincite
Measured chemistry: Mn^2+^_1.00_O ; trace amounts of Mg
Raman shift (cm-1)	intensity
171.185	0
174.078	0.965088
176.971	23.0789
179.863	85.395
182.756	59.9089
185.649	96.2722
188.542	106.169
191.434	76.1433
194.327	40.8108
197.22	81.9216
200.112	86.032
203.005	103.692
205.898	28.9717
208.791	51.029
211.683	31.9614
214.576	1.87427
217.469	54.7566
220.361	16.9233
223.254	116.794
226.147	57.655
229.04	75.3855
231.932	78.2991
234.825	80.2688
237.718	85.2993
240.61	121.021
243.503	85.906
246.396	36.5432
249.288	54.7473
252.181	47.8293
255.074	30.4946
257.966	66.4329
260.859	75.6331
263.752	85.4356
266.645	55.9893
269.537	30.209
272.43	31.9158
275.323	27.8577
278.215	54.4304
281.108	121.856
284.001	103.2
286.894	102.082
289.786	81.8428
292.679	34.3867
295.572	50.1882
298.464	130.193
301.357	111.918
304.25	153.865
307.142	160.269
310.035	105.922
312.928	136.24
315.82	55.3543
318.713	72.605
321.606	55.7937
324.499	6.00269
327.391	91.3709
330.284	106.062
333.177	72.459
336.069	73.157
338.962	66.346
341.855	32.6213
344.748	50.1558
347.64	112.926
350.533	57.77
353.426	69.6382
356.318	109.231
359.211	108.744
362.104	57.2571
364.996	44.3403
367.889	73.2412
370.782	37.4648
373.675	32.5466
376.567	66.8574
379.46	40.8923
382.353	60.1843
385.245	10.2322
388.138	50.5625
391.031	6.95679
393.923	70.7349
396.816	64.675
399.709	24.9675
402.601	2.49023
405.494	44.2495
408.387	17.523
411.28	23.1521
414.172	13.0178
417.065	36.5981
419.958	39.2559
422.85	5.91797
425.743	49.4641
428.636	21.5017
431.529	18.926
434.421	68.1348
437.314	81.4932
440.207	151.732
443.099	133.591
445.992	148.467
448.885	183.144
451.777	128.802
454.67	173.842
457.563	162.037
460.455	188.346
463.348	199.638
466.241	269.146
469.134	230.955
472.026	266.359
474.919	255.978
477.812	196.155
480.704	241.462
483.597	237.383
486.49	225.749
489.382	295.896
492.275	294.279
495.168	225.619
498.061	211.506
500.953	181.364
503.846	160.216
506.739	167.6
509.631	213.443
512.524	193.183
515.417	211.098
518.309	190.893
521.202	216.982
524.095	167.642
526.988	179.615
529.88	132.836
532.773	114.937
535.666	112.397
538.558	144.607
541.451	138.05
544.344	93.0339
547.236	95.1392
550.129	58.3516
553.022	76.5952
555.915	84.8943
558.807	35.9473
561.7	118.215
564.593	84.801
567.485	8.75366
570.378	1.04956
573.271	4.01514
576.163	10.9275
579.056	39.7405
581.949	15.0544
584.842	15.9697
587.734	50.0076
590.627	12.1585
593.52	41.6128
596.413	61.4546
599.305	84.2107
602.198	77.6218
605.091	116.725
607.983	131.694
610.876	178.123
613.769	123.092
616.661	172.182
619.554	177.969
622.447	165.583
625.34	105.745
628.232	155.02
631.125	101.831
634.018	95.3818
636.91	181.805
639.803	184.126
642.696	171.467
645.588	174.644
648.481	156.764
651.374	162.157
654.266	198.387
657.159	237.265
660.052	217.354
662.945	181.767
665.837	105.217
668.73	90.6736
671.623	54.5806
674.515	82.8086
677.408	33.519
680.301	61.5796
683.193	59.4485
686.086	32.9539
688.979	47.7398
691.872	74.9917
694.764	6.94775
697.657	21.7773
700.55	2.46069
703.442	93.012
706.335	16.6597
709.228	1.70337
712.12	34.3953
715.013	39.5786
717.906	70.6121
720.799	8.57398
723.691	69.749
726.584	57.9187
729.477	71.9399
732.369	59.2891
735.262	70.8457
738.155	44.5422
741.048	12.2236
743.94	98.4878
746.833	30.8782
749.726	64.5198
752.618	92.8115
755.511	111.979
758.404	0.492676
761.296	88.3494
764.189	89.8027
767.082	81.6609
769.975	102.034
772.867	61.4099
775.76	72.9067
778.653	122.399
781.545	137.267
784.438	108.535
787.331	74.7998
790.223	101.749
793.116	54.804
796.009	45.3848
798.902	38.9773
801.794	53.7205
804.687	35.8843
807.58	66.8064
810.472	64.3857
813.365	48.6118
816.258	114.804
819.15	73.7498
822.043	53.4807
824.936	107.29
827.828	6.97266
830.721	19.71
833.614	53.7688
836.507	6.00073
839.399	71.7012
842.292	74.0486
845.185	59.3401
848.077	48.5664
850.97	31.9663
853.863	48.8167
856.755	63.0757
859.648	24.7732
862.541	32.623
865.434	45.6992
868.326	24.2234
871.219	35.6318
874.112	16.0132
877.004	12.2031
879.897	104.335
882.79	32.7866
885.683	65.55
888.575	40.3928
891.468	15.5691
894.361	26.9739
897.253	17.9521
900.146	8.56934
903.039	6.75488
905.931	28.3496
908.824	47.4302
911.717	33.8396
914.61	122.94
917.502	5.27271
920.395	31.6587
923.288	7.86475
926.18	50.946
929.073	80.2854
931.966	36.9985
934.859	79.7683
937.751	47.7852
940.644	56.4724
943.537	12.5747
946.429	53.4844
949.322	33.7903
952.215	5.90161
955.107	53.8286
958	59.6768
960.893	80.4438
963.785	12.9788
966.678	64.8992
969.571	32.1411
972.464	84.176
975.356	41.2444
978.249	34.7036
981.142	75.5134
984.034	31.436
986.927	4.06372
989.82	50.604
992.712	38.2788
995.605	32.9802
998.498	56.9324
1001.39	50.3845
1004.28	90.0588
1007.18	129.696
1010.07	96.5452
1012.96	73.5874
1015.85	110.128
1018.75	110.662
1021.64	68.1721
1024.53	18.1538
1027.42	67.1641
1030.32	134.969
1033.21	133.134
1036.1	131.002
1039	160.596
1041.89	153.719
1044.78	108.861
1047.67	93.9836
1050.57	124.549
1053.46	152.627
1056.35	106.469
1059.24	131.057
1062.14	122.127
1065.03	95.5854
1067.92	60.3716
1070.82	96.8191
1073.71	117.974
1076.6	166.817
1079.49	167.581
1082.39	156.68
1085.28	237.357
1088.17	184.372
1091.06	155.327
1093.96	146.875
1096.85	169.53
1099.74	107.9
1102.63	124.398
1105.53	62.6196
1108.42	48.3091
1111.31	35.8164
1114.21	130.297
1117.1	57.5449
1119.99	24.5161
1122.88	46.0874
1125.78	24.8699
1128.67	20.5613
1131.56	21.7971
1134.45	6.80273
1137.35	28.7407
1140.24	27.9439
1143.13	0.172119
1146.03	6.90039
1148.92	61.7261
1151.81	58.7263
1154.7	34.8708
1157.6	66.7908
1160.49	100.103
1163.38	21.5637
1166.28	32.5832
1169.17	72.3223
1172.06	50.8948
1174.95	20.2602
1177.85	43.9165
1180.74	73.1086
1183.63	49.2368
1186.52	106.015
1189.42	93.8423
1192.31	65.9326
1195.2	74.8276
1198.09	99.3147
1200.99	66.0823
1203.88	38.748
1206.77	86.634
1209.66	33.8389
1212.56	54.2315
1215.45	68.7551
1218.34	57.4719
1221.24	121.719
1224.13	105.842
1227.02	112.832
1229.91	61.023
1232.81	94.6382
1235.7	63.0005
1238.59	59.5413
1241.48	23.874
1244.38	5.80786
1247.27	36.854
1250.16	104.488
1253.06	44.1233
1255.95	11.2986
1258.84	31.7876
1261.73	18.3003
