Measurement: Raman, 780 nm, unoriented, Raman Data Processed
Mineral: Marthozite
Rruff sample: R090052
Ideal chemistry: Cu^2+^(U^6+^O_2_)_3_(Se^4+^O_3_)_2_O_2_8H_2_O
Locality: Musonoi mine, Kolwezi, Katanga, Congo
Source: William W. Pinch
Description: Yellowish green triangular shaped flattened and striated crystals, associated with guilleminite and green brochantite.  Sample is from the same specimen used in the Cooper and Hawthorne (2001) study
Raman shift (cm-1)	intensity
111.792	0
115.167	5.53682
118.542	1.99279
121.917	1.18657
125.291	7.17767
128.666	5.2267
132.041	4.01998
135.416	7.34095
138.791	2.62405
142.166	5.12628
145.54	0.117035
148.915	3.28888
152.29	0.876949
155.665	1.42288
159.04	2.32488
162.414	0.575199
165.789	5.23495
169.164	4.94976
172.539	5.52435
175.914	2.52618
179.288	3.16679
182.663	7.10358
186.038	6.74727
189.413	5.934
192.788	8.64467
196.162	9.18389
199.537	8.31478
202.912	6.03605
206.287	4.34417
209.662	3.82598
213.037	2.8564
216.411	1.18342
219.786	0.061493
223.161	5.76525
226.536	4.0802
229.911	0.121433
233.286	4.52372
236.66	0.559795
240.035	1.37745
243.41	5.73775
246.785	5.54221
250.16	4.14653
253.534	2.46647
256.909	5.07579
260.284	2.7288
263.659	4.52359
267.034	3.33877
270.408	2.40983
273.783	1.97065
277.158	3.21576
280.533	3.06604
283.908	7.6434
287.283	5.34045
290.657	2.23403
294.032	4.06773
297.407	1.68761
300.782	8.12356
304.157	1.46413
307.531	1.93187
310.906	5.12818
314.281	7.13431
317.656	1.82004
321.031	2.04838
324.406	2.5801
327.78	0.186197
331.155	0.169518
334.53	5.09722
337.905	3.30866
341.279	8.41998
344.654	9.49572
348.029	4.80915
351.404	7.4176
354.779	8.86086
358.154	8.67697
361.528	3.93676
364.903	5.49813
368.278	3.20243
371.653	8.46415
375.028	3.89038
378.402	2.27843
381.777	0.794777
385.152	2.82866
388.527	4.28524
391.902	0.611475
395.277	1.54424
398.651	2.77757
402.026	5.24009
405.401	6.56741
408.776	3.26344
412.151	7.6044
415.526	1.1313
418.9	6.84177
422.275	6.04971
425.65	5.64365
429.025	3.0783
432.399	7.46341
435.774	5.05885
439.149	3.47772
442.524	8.65222
445.899	3.35108
449.274	5.71938
452.648	3.01107
456.023	0.937084
459.398	4.16179
462.773	6.13262
466.148	4.28813
469.522	4.8855
472.897	1.08953
476.272	5.50717
479.647	0.655695
483.022	5.70111
486.397	0.008604
489.771	5.18206
493.146	2.51884
496.521	1.51554
499.896	0.226309
503.271	0.558687
506.645	1.24539
510.02	1.03255
513.395	3.31644
516.77	0.950016
520.145	2.92733
523.519	1.51813
526.894	1.52446
530.269	4.95947
533.644	2.59032
537.019	3.50466
540.394	3.2818
543.768	3.95152
547.143	2.71905
550.518	6.25393
553.893	0.051695
557.268	3.81068
560.643	6.16543
564.017	2.38682
567.392	8.11425
570.767	5.13134
574.142	7.10911
577.516	2.87155
580.891	3.08273
584.266	0.219845
587.641	3.17967
591.016	7.63497
594.391	6.3872
597.765	3.83714
601.14	7.07812
604.515	4.60208
607.89	3.54622
611.265	3.36781
614.639	2.50858
618.014	4.36777
621.389	5.04757
624.764	6.05561
628.139	6.39918
631.514	2.58845
634.888	2.35421
638.263	1.54473
641.638	9.46518
645.013	6.26853
648.388	4.24287
651.763	5.15577
655.137	8.09087
658.512	4.13289
661.887	0.964935
665.262	2.59289
668.636	2.72043
672.011	2.17315
675.386	4.3809
678.761	2.69801
682.136	1.91084
685.511	0.572264
688.885	0.671537
692.26	6.73512
695.635	3.75787
699.01	2.15249
702.385	2.23721
705.76	5.66415
709.134	3.24237
712.509	2.67247
715.884	2.13986
719.259	4.6229
722.634	1.62953
726.008	5.62576
729.383	3.31404
732.758	4.19552
736.133	3.48526
739.508	4.38353
742.882	7.33925
746.257	3.46592
749.632	2.51104
753.007	2.45009
756.382	2.60518
759.756	1.63973
763.131	3.91139
766.506	0.519024
769.881	2.60257
773.256	0.894691
776.631	4.86123
780.005	4.378
783.38	5.96911
786.755	11.0264
790.13	12.878
793.505	21.7134
796.88	19.6035
800.254	23.3195
803.629	24.565
807.004	29.6855
810.379	24.5363
813.754	25.5229
817.128	24.6659
820.503	31.0521
823.878	22.6785
827.253	21.6046
830.628	15.3486
834.002	13.278
837.377	11.6862
840.752	8.76854
844.127	7.62493
847.502	6.73334
850.876	6.2678
854.251	7.23237
857.626	6.12941
861.001	4.35561
864.376	6.92203
867.751	4.98382
871.125	5.59954
874.5	7.98011
877.875	7.02634
881.25	5.43595
884.625	2.68067
888	3.95578
891.374	6.2104
894.749	2.03985
898.124	1.11072
901.499	0.449398
904.874	3.02335
908.248	1.05393
911.623	1.23584
914.998	0.74844
918.373	0.66147
921.748	3.35127
925.122	0.677673
928.497	5.77355
931.872	3.05253
935.247	5.48854
938.622	2.89387
941.996	5.15919
945.371	3.12424
948.746	2.32161
952.121	4.01971
955.496	4.68425
958.87	2.04223
962.245	6.04851
965.62	4.08596
968.995	4.11847
972.37	4.4952
975.745	2.97643
979.119	1.08969
982.494	9.55931
985.869	3.23015
989.244	5.13136
992.619	3.68072
995.994	10.9143
999.368	5.11795
1002.74	2.25832
1006.12	5.36292
1009.49	2.6682
1012.87	0.417549
1016.24	4.04824
1019.62	6.19934
1022.99	6.00738
1026.37	2.68093
1029.74	2.30962
1033.12	3.04754
1036.49	7.86892
1039.87	9.51283
1043.24	0.35462
1046.62	1.78452
1049.99	2.68116
1053.37	3.24429
1056.74	0.748652
1060.12	8.6855
1063.49	4.18632
1066.87	1.36733
1070.24	4.732
1073.61	1.60659
1076.99	3.90451
1080.36	8.8626
1083.74	5.33583
1087.11	0.275358
1090.49	6.30452
1093.86	3.64277
1097.24	2.53296
1100.61	4.0531
1103.99	2.5613
1107.36	0.049414
1110.74	5.3821
1114.11	0.377977
1117.49	2.12945
1120.86	2.42767
1124.24	4.73775
1127.61	6.23843
1130.99	2.61084
1134.36	2.65795
1137.74	2.26602
1141.11	5.64006
1144.48	6.29277
1147.86	4.95689
1151.23	4.45763
1154.61	5.02662
1157.98	0.929977
1161.36	4.50096
1164.73	1.4619
1168.11	4.74974
1171.48	4.51153
1174.86	4.42554
1178.23	7.87386
1181.61	3.92114
1184.98	2.80905
1188.36	2.4551
1191.73	6.73956
1195.11	3.26338
1198.48	5.22158
1201.86	0.465122
1205.23	5.13334
1208.61	3.92178
1211.98	1.57202
1215.36	0.237946
1218.73	5.86454
1222.11	1.41684
1225.48	3.2086
1228.86	1.35827
1232.23	4.56712
1235.61	2.36456
1238.98	0.330093
1242.36	0.73077
1245.73	5.61338
1249.11	2.29947
1252.48	3.87105
1255.85	4.23722
1259.23	6.15145
1262.6	4.67996
1265.98	3.79132
1269.35	3.50425
1272.73	1.5908
1276.1	4.46402
1279.48	4.09406
1282.85	1.75539
1286.23	0
