Measurement: Raman, 532 nm, unoriented, Raman Data Processed
Mineral: Menezesite
Rruff sample: R060979
Ideal chemistry: Ba_3_MgZr^4+^_4_Nb^5+^_12_O_42_12H_2_O
Locality: Jacupiranga mine, Cajati, Sao Paulo, Brazil
Source: Michael Scott
Description: Rootbeer colored dodecahedra associated with calcite, phlogopite, clinohumite, pyrite and magnetite
Raman shift (cm-1)	intensity
83.4352	197.37
86.8101	192.423
90.1849	192.973
93.5597	198.354
96.9345	203.294
100.309	191.907
103.684	208.677
107.059	295.06
110.434	499.692
113.809	949.922
117.183	1834.95
120.558	2942.26
123.933	4151.12
127.308	5307.14
130.683	5918.47
134.058	6179.3
137.432	6449.83
140.807	7088.62
144.182	7782.61
147.557	8281.25
150.931	8539.55
154.306	8827.3
157.681	9256.59
161.056	9741.09
164.431	10153.5
167.806	10351.6
171.18	10192.6
174.555	10155.4
177.93	10177.8
181.305	10136.3
184.68	10192.7
188.054	10155.3
191.429	10157.6
194.804	10118
198.179	10072.9
201.554	10209.2
204.929	10225.9
208.303	10281.1
211.678	10222.6
215.053	10220.2
218.428	10314.1
221.803	10288.6
225.178	10398.7
228.552	10453.4
231.927	10537.2
235.302	10609.5
238.677	10674.3
242.052	10572.3
245.426	10621.7
248.801	10600.8
252.176	10371.3
255.551	10202.3
258.926	10064.3
262.3	9982.29
265.675	9780.59
269.05	9690.23
272.425	9389.8
275.8	9257.49
279.175	9154.49
282.549	9067.49
285.924	8829.91
289.299	8755.76
292.674	8607.32
296.049	8454.93
299.423	8442.61
302.798	8384.95
306.173	8447.07
309.548	8274.5
312.923	8285.11
316.298	8235.83
319.672	8269.82
323.047	8294.36
326.422	8299.34
329.797	8244.15
333.172	8264.33
336.546	8257.07
339.921	8262.42
343.296	8181.39
346.671	8121.97
350.046	8113.15
353.421	8007.62
356.795	7897.57
360.17	7793.5
363.545	7702.82
366.92	7601.02
370.295	7491.23
373.669	7399.21
377.044	7335.44
380.419	7243.84
383.794	7118.66
387.169	7069.93
390.543	6985.73
393.918	6911.05
397.293	6823.81
400.668	6684.6
404.043	6553.38
407.418	6508.87
410.792	6332.42
414.167	6313.06
417.542	6211.08
420.917	6122.92
424.292	6051.33
427.666	5928.66
431.041	5829.03
434.416	5858.66
437.791	5794.01
441.166	5745.53
444.541	5666.05
447.915	5668.65
451.29	5566.68
454.665	5611.63
458.04	5513.41
461.415	5519.46
464.789	5498.97
468.164	5427.53
471.539	5478.49
474.914	5453.66
478.289	5441.11
481.663	5401.63
485.038	5458.38
488.413	5454.68
491.788	5453.22
495.163	5471.59
498.538	5504.2
501.912	5524.66
505.287	5579.61
508.662	5647.31
512.037	5793.96
515.412	5824.88
518.786	5894.32
522.161	5940.65
525.536	6022.05
528.911	6072.44
532.286	6115.61
535.66	6178.5
539.035	6261.14
542.41	6334.79
545.785	6344.93
549.16	6451.13
552.534	6430.14
555.909	6546.86
559.284	6614.12
562.659	6723.61
566.034	6738.01
569.409	6797.82
572.783	6823.9
576.158	6874.98
579.533	6929.4
582.908	6980.64
586.283	6998.38
589.658	7003.04
593.032	7044.26
596.407	7098.16
599.782	7077.6
603.157	7133.77
606.532	7218.33
609.906	7233.73
613.281	7192.8
616.656	7169.69
620.031	7208.43
623.406	7115.93
626.78	7121.61
630.155	7072.51
633.53	6990.82
636.905	6946.87
640.28	6849.28
643.654	6770.27
647.029	6709.76
650.404	6742.62
653.779	6522.65
657.154	6423.71
660.529	6358.4
663.903	6210.98
667.278	6167.68
670.653	6098.65
674.028	5878.99
677.403	5817.08
680.778	5772.54
684.152	5688.03
687.527	5591.76
690.902	5552.52
694.277	5470.17
697.652	5364.12
701.026	5248.42
704.401	5248.37
707.776	5200.69
711.151	5199.84
714.526	5138.15
717.9	5164.67
721.275	5129.55
724.65	5141.57
728.025	5120.55
731.4	5133.62
734.775	5241.89
738.149	5292.6
741.524	5259.64
744.899	5336.62
748.274	5381.26
751.649	5388.91
755.024	5525.22
758.398	5544.28
761.773	5597.06
765.148	5687.03
768.523	5785.31
771.898	5861.36
775.272	5918.6
778.647	5997.32
782.022	6078.08
785.397	6100.13
788.772	6175.35
792.146	6253.03
795.521	6355.29
798.896	6400.97
802.271	6398.02
805.646	6451.8
809.02	6468.08
812.395	6464.77
815.77	6508.39
819.145	6573.56
822.52	6607.98
825.895	6659.81
829.269	6622.81
832.644	6666.35
836.019	6686.25
839.394	6754.05
842.769	6735.14
846.144	6745.49
849.518	6772.35
852.893	6749.44
856.268	6816.37
859.643	6841.07
863.018	6902.34
866.392	6838.1
869.767	6925.63
873.142	6940.99
876.517	6926.86
879.892	7034.76
883.266	6971.73
886.641	7086.75
890.016	7174.61
893.391	7172.32
896.766	7195.61
900.14	7123.75
903.515	6966.89
906.89	6919.15
910.265	6741.26
913.64	6615.19
917.015	6289.38
920.389	5965.36
923.764	5639.59
927.139	5311.12
930.514	4822.87
933.889	4308.76
937.264	3760.68
940.638	3310.07
944.013	2831.61
947.388	2530.4
950.763	2282.23
954.138	2049.3
957.512	1899.5
960.887	1805.16
964.262	1728.05
967.637	1657.57
971.012	1589.93
974.386	1520.54
977.761	1492.12
981.136	1475.48
984.511	1419.71
987.886	1380.49
991.261	1350.04
994.635	1329.99
998.01	1295.77
1001.38	1296.15
1004.76	1258.85
1008.13	1255.13
1011.51	1213.14
1014.88	1207.11
1018.26	1183.44
1021.63	1205.57
1025.01	1190.89
1028.38	1183.1
1031.76	1135.88
1035.13	1155.54
1038.51	1156.99
1041.88	1142.66
1045.26	1127.79
1048.63	1114.35
1052.01	1098.44
1055.38	1096.27
1058.76	1080.51
1062.13	1067.15
1065.51	1067.94
1068.88	1052.81
1072.26	1032.49
1075.63	1057.55
1079.01	1055.9
1082.38	1010.31
1085.76	1011.92
1089.13	1017.15
1092.51	1020.04
1095.88	998.923
1099.26	986.71
1102.63	992.396
1106	999.356
1109.38	985.478
1112.75	975.847
1116.13	955.861
1119.5	946.477
1122.88	946.896
1126.25	933.734
1129.63	917.839
1133	930.528
1136.38	927.743
1139.75	890.764
1143.13	880.795
1146.5	882.71
1149.88	849.529
1153.25	869.447
1156.63	857.038
1160	857.642
1163.38	857.321
1166.75	839.494
1170.13	845.249
1173.5	841.486
1176.88	829.699
1180.25	802.885
1183.62	818.735
1187	826.289
1190.38	800.907
1193.75	797.046
1197.12	812.629
1200.5	789.707
1203.87	795.165
1207.25	764.808
1210.62	773.097
1214	779.278
1217.37	781.69
1220.75	759.05
1224.12	761.739
1227.5	757.748
1230.87	776.485
1234.25	758.718
1237.62	770.426
1241	754.481
1244.37	728.44
1247.75	729.9
1251.12	739.109
1254.5	704.647
1257.87	735.493
1261.25	720.766
1264.62	726.531
1267.99	701.908
1271.37	711.213
1274.74	713.933
1278.12	684.51
1281.49	717.699
1284.87	703.235
1288.24	709.591
1291.62	683.925
1294.99	683.085
1298.37	686.833
