Measurement: Raman, 785 nm, unoriented, Raman Data Processed
Mineral: Menezesite
Rruff sample: R060979
Ideal chemistry: Ba_3_MgZr^4+^_4_Nb^5+^_12_O_42_12H_2_O
Locality: Jacupiranga mine, Cajati, Sao Paulo, Brazil
Source: Michael Scott
Description: Rootbeer colored dodecahedra associated with calcite, phlogopite, clinohumite, pyrite and magnetite
Raman shift (cm-1)	intensity
88.7441	238.008
92.119	221.392
95.4938	203.221
98.8686	187.851
102.243	191.987
105.618	189.331
108.993	198.002
112.368	207.673
115.743	265.381
119.118	318.771
122.492	428.008
125.867	783.954
129.242	1430.59
132.617	2025.63
135.992	1986.73
139.366	2140.93
142.741	2943.9
146.116	4309.67
149.491	5327.34
152.866	5568.11
156.24	5499.13
159.615	5742.91
162.99	6222.09
166.365	6654.07
169.74	6919.91
173.114	6808.89
176.489	6651.92
179.864	6612.33
183.239	6488.09
186.614	6458.76
189.989	6532.12
193.363	6476.79
196.738	6452.09
200.113	6506.08
203.488	6508.18
206.863	6453.64
210.238	6416.82
213.612	6438.43
216.987	6480.69
220.362	6548.88
223.737	6605.93
227.112	6717.74
230.486	6754.14
233.861	6802.91
237.236	6961.19
240.611	7085.78
243.986	7194.15
247.36	7321.32
250.735	7388.92
254.11	7535.55
257.485	7675.46
260.86	7751
264.235	7909.32
267.609	7929.15
270.984	8044.17
274.359	8169.19
277.734	8271.05
281.109	8405.05
284.483	8468.68
287.858	8415.32
291.233	8286.21
294.608	8213.04
297.983	8129.03
301.358	8031.77
304.732	8047.38
308.107	8008.47
311.482	7853.4
314.857	7762.67
318.231	7593.18
321.606	7471.61
324.981	7433.66
328.356	7386.25
331.731	7300.31
335.106	7169.16
338.48	7078.85
341.855	6969.69
345.23	6882.37
348.605	6833.79
351.98	6790.8
355.354	6622.45
358.729	6544.58
362.104	6399.71
365.479	6327.85
368.854	6265.51
372.229	6219.89
375.603	6166.29
378.978	6044.8
382.353	5947.01
385.728	5860.31
389.103	5730.78
392.477	5770.18
395.852	5804.06
399.227	5722.8
402.602	5596.27
405.977	5550.16
409.351	5496
412.726	5496.45
416.101	5543.31
419.476	5456.36
422.851	5366.93
426.226	5312.93
429.6	5276.98
432.975	5221.35
436.35	5162.28
439.725	5070.81
443.1	5008.88
446.474	4981.64
449.849	4927.56
453.224	4854.86
456.599	4755.57
459.974	4714.04
463.349	4689.63
466.723	4621.68
470.098	4599.75
473.473	4524.59
476.848	4470.58
480.223	4488.64
483.597	4444.88
486.972	4508.47
490.347	4458.47
493.722	4448.26
497.097	4433.45
500.471	4464.22
503.846	4466.85
507.221	4467.33
510.596	4474.85
513.971	4533.24
517.346	4534.92
520.72	4525.32
524.095	4508.81
527.47	4547.43
530.845	4576.74
534.22	4580.75
537.595	4588.56
540.969	4608.82
544.344	4613.28
547.719	4610.16
551.094	4584.05
554.469	4690.69
557.843	4678.3
561.218	4687.49
564.593	4699.67
567.968	4666.52
571.343	4667.14
574.717	4694.28
578.092	4714.86
581.467	4720.31
584.842	4705.42
588.217	4683.83
591.591	4650.98
594.966	4677.48
598.341	4619.73
601.716	4655.15
605.091	4673.94
608.466	4688.87
611.84	4649.49
615.215	4636.74
618.59	4618.08
621.965	4600.63
625.34	4544.89
628.715	4591.52
632.089	4500.87
635.464	4538.14
638.839	4477.73
642.214	4437.41
645.589	4370.58
648.963	4361.4
652.338	4341.94
655.713	4302.9
659.088	4311.93
662.463	4228.52
665.837	4208.27
669.212	4213.9
672.587	4151.76
675.962	4158.67
679.337	4181.1
682.712	4148.26
686.086	4109.81
689.461	4151.89
692.836	4165.08
696.211	4169.97
699.586	4200.01
702.96	4223.83
706.335	4222.9
709.71	4295.56
713.085	4291.93
716.46	4315.98
719.835	4360.04
723.209	4406.21
726.584	4332.5
729.959	4354.53
733.334	4297.27
736.709	4338.75
740.083	4322.56
743.458	4313.4
746.833	4308.27
750.208	4313.61
753.583	4282.04
756.957	4304.12
760.332	4314.2
763.707	4340.15
767.082	4371.28
770.457	4426.06
773.832	4479.23
777.206	4516.26
780.581	4589.17
783.956	4680.47
787.331	4730.74
790.706	4761.53
794.08	4807.59
797.455	4778.51
800.83	4890.5
804.205	4895.2
807.58	4937.92
810.955	5053.19
814.329	4978.44
817.704	4998.59
821.079	4977.55
824.454	5065.95
827.829	5089.84
831.203	5104.14
834.578	5082.59
837.953	5186.29
841.328	5202.06
844.703	5271.46
848.077	5360.01
851.452	5372.6
854.827	5409.54
858.202	5433.65
861.577	5471.93
864.952	5420.61
868.326	5394.9
871.701	5444.64
875.076	5397.19
878.451	5444.78
881.826	5489.4
885.2	5501.47
888.575	5647.35
891.95	5698.44
895.325	5804.12
898.7	5894.71
902.074	5947.76
905.449	6060.13
908.824	6207.7
912.199	6267.56
915.574	6282.32
918.948	6311.48
922.323	6316.82
925.698	6380.41
929.073	6372.2
932.448	6338
935.823	6300.84
939.197	6238.1
942.572	6221.44
945.947	6105.02
949.322	6164.89
952.697	6205.4
956.072	6293.42
959.446	6310.12
962.821	6469.02
966.196	6548.34
969.571	6632.51
972.946	6767.3
976.32	6942.3
979.695	7169.08
983.07	7352.11
986.445	7625.95
989.82	7854.54
993.194	8167.94
996.569	8594.83
999.944	9130.87
1003.32	9571.09
1006.69	10203.6
1010.07	10740.9
1013.44	11314.3
1016.82	12041.9
1020.19	12616.7
1023.57	13286.7
1026.94	13896.8
1030.32	14479.7
1033.69	15063.2
1037.07	15448.7
1040.44	15690
1043.82	15966.3
1047.19	16090.6
1050.57	16069.2
1053.94	16035.8
1057.32	15775.2
1060.69	15429.6
1064.07	14966.9
1067.44	14462.6
1070.82	13902.5
1074.19	13338.2
1077.57	12828.2
1080.94	12327.6
1084.31	11827.9
1087.69	11405.4
1091.06	11020.7
1094.44	10734.1
1097.81	10473.5
1101.19	10389.4
1104.56	10191.4
1107.94	10275.8
1111.31	10514.4
1114.69	10818.5
1118.06	11261.8
1121.44	11942.4
1124.81	12980.7
1128.19	14194.6
1131.56	15624
1134.94	17217.7
1138.31	19029.5
1141.69	21079.5
1145.06	23389.2
1148.44	25747.9
1151.81	27684
1155.19	29203.9
1158.56	31018.1
1161.93	33410.2
1165.31	37002.9
1168.68	40682.8
1172.06	43416.4
1175.43	44525
1178.81	44421.9
1182.18	43001.6
1185.56	41077.4
1188.93	39206.3
1192.31	37384.8
1195.68	35581
1199.06	34314.1
1202.43	32743.8
1205.81	31532.9
1209.18	30491.3
1212.56	29801.3
1215.93	29285.8
1219.31	28906.4
1222.68	28862.6
1226.06	28852.8
1229.43	28971.3
1232.81	29030.1
1236.18	29096.1
1239.56	29279.1
1242.93	29331.2
1246.31	29380.3
1249.68	29535.7
1253.06	29961.3
1256.43	30285.5
1259.81	30993.9
1263.18	31582.8
1266.55	32577.7
1269.93	33629.9
