Measurement: Raman, 514 nm, unoriented, Raman Data Processed
Mineral: Meneghinite
Rruff sample: R050444
Ideal chemistry: Pb^2+^_13_Cu^1+^Sb^3+^_7_S^2-^_24_
Locality: Bottino, Tucsany, Italy
Source: Peter Megaw
Description: Lead-gray metallic slender prismatic and striated crystal
Measured chemistry: (Pb_12.75_Sb_0.25_)_Σ=13.00_(Cu_0.73_Sb_0.13_Fe_0.01_)_Σ=0.87_Sb_7.00_S_24.00_
Raman shift (cm-1)	intensity
183.468	0
187.602	265.558
191.733	938.666
195.863	527.568
199.99	860.957
204.116	2267.94
208.239	3460.89
212.361	1680.88
216.48	596.504
220.598	207.736
224.714	13.023
228.828	1.397
232.939	37.308
237.049	44.416
241.157	84.266
245.263	239.159
249.367	1358.24
253.469	2810.45
257.569	1640.24
261.667	681.087
265.763	518.437
269.857	551.635
273.95	623.231
278.04	810.461
282.128	1176.18
286.215	1534.87
290.299	1666.57
294.382	1604.22
298.462	1661.92
302.541	2052.64
306.618	2769.27
310.692	2524.31
314.765	1293.71
318.836	631.402
322.905	302.347
326.972	212.558
331.037	129.066
335.101	39.129
339.162	16.779
343.221	31.542
347.279	15.005
351.334	50.999
355.388	58.397
359.44	4.158
363.489	9.635
367.537	67.059
371.583	29.915
375.627	6.822
379.669	61.628
383.71	32.431
387.748	26.757
391.784	10.281
395.819	33.936
399.852	17.633
403.882	123.08
407.911	117.453
411.938	321.553
415.963	416.762
419.986	655.91
424.007	980.794
428.027	1528.56
432.044	2276.94
436.059	2832.36
440.073	3196.07
444.085	3284.72
448.095	3048.07
452.103	2631.51
456.109	1961.33
460.113	1594.67
464.115	1260.66
468.116	990.391
472.114	964.882
476.111	917.141
480.106	788.888
484.099	777.804
488.09	941.972
492.079	847.116
496.066	928.036
500.052	799.583
504.035	737.245
508.017	561.578
511.997	531.691
515.975	495.837
519.951	368.168
523.925	274.194
527.897	334.017
531.868	300.657
535.837	339.933
539.803	301.335
543.768	298.466
547.731	413.103
551.693	497.189
555.652	509.725
559.609	543.595
563.565	671.138
567.519	896.921
571.471	1024.43
575.421	1122.3
579.369	1296.54
583.316	1637.56
587.26	1870.38
591.203	2211.01
595.144	2463.47
599.083	2896.76
603.02	3682.49
606.956	4210.68
610.889	4797.25
614.821	5414.92
618.751	5982.28
622.679	6679.12
626.605	7586.56
630.53	8464.21
634.452	10001.7
638.373	12952.9
642.292	17593.3
646.209	21882.2
650.124	20785.4
654.038	15190.9
657.95	10461.1
661.859	7419.89
665.767	5375.37
669.674	4219.47
673.578	3340.8
677.48	2734.18
681.381	2425.98
685.28	2078.49
689.177	1767.86
693.073	1576.19
696.966	1596.25
700.858	1425.59
704.748	1254.96
708.636	1119.82
712.522	1026.79
716.407	939.148
720.289	807.867
724.17	782.981
728.049	571.875
731.927	554.622
735.802	511.192
739.676	452.576
743.548	332.772
747.418	354.781
751.286	277.602
755.153	109.234
759.018	258.665
762.881	189.897
766.742	81.928
770.601	73.729
774.459	138.291
778.315	97.623
782.169	32.715
786.021	39.554
789.872	24.864
793.72	2.608
797.567	71.693
801.412	37.695
805.256	200.362
809.098	112.164
812.937	87.599
816.775	64.602
820.612	6.119
824.446	28.857
828.279	18.409
832.11	67.171
835.939	82.392
839.767	71.083
843.593	11.771
847.417	124.296
851.239	119.444
855.059	34.331
858.878	105.972
862.695	126.385
866.51	157.569
870.324	94.531
874.136	201.269
877.945	207.79
881.754	246.102
885.56	168.209
889.365	303.116
893.168	320.824
896.969	369.164
900.769	355.658
904.566	334.793
908.362	510.28
912.157	508.915
915.949	595.012
919.74	708.443
923.529	735.717
927.316	1103.33
931.102	1270.74
934.886	1498.22
938.668	1989.54
942.448	2397.97
946.227	3103.4
950.004	4035.5
953.779	4986.85
957.552	6414.53
961.324	7828.32
965.094	8003.42
968.862	7489.74
972.629	5831.64
976.394	4460.8
980.157	3270.75
983.919	2539.07
987.678	2084.17
991.436	1567.82
995.193	1264.18
998.947	1060.77
1002.7	998.324
1006.45	809.438
1010.2	791.247
1013.95	682.387
1017.69	549.443
1021.44	525.665
1025.18	525.982
1028.92	513.58
1032.66	498.327
1036.4	459.208
1040.13	538.082
1043.87	438.029
1047.6	342.056
1051.33	361.256
1055.06	471.476
1058.79	405.809
1062.51	474.27
1066.24	445.87
1069.96	490.625
1073.68	425.562
1077.4	199.184
1081.12	284.493
1084.83	392.528
1088.55	388.338
1092.26	354.432
1095.97	312.865
1099.68	280.635
1103.38	263.589
1107.09	319.847
1110.79	374.096
1114.5	361.871
1118.2	323.443
1121.89	353.573
1125.59	237.222
1129.29	194.498
1132.98	214.38
1136.67	285.696
1140.36	307.28
1144.05	346.123
1147.74	421.238
1151.42	400.622
1155.11	211.285
1158.79	243.246
1162.47	189.52
1166.15	200.124
1169.83	127.07
1173.5	170.324
1177.17	193.807
1180.85	9.384
1184.52	123.742
1188.19	47.159
1191.85	118.817
1195.52	9.05
1199.18	154.693
1202.85	45.015
1206.51	57.936
1210.16	103.497
1213.82	128.743
1217.48	0.723
1221.13	19.5
1224.78	64.908
1228.43	99.594
1232.08	103.12
1235.73	11.314
1239.38	84.03
1243.02	91.137
1246.66	58.561
1250.3	123.511
1253.94	94.824
1257.58	106.729
1261.22	65.001
