Measurement: Raman, 532 nm, unoriented, Raman Data Processed
Mineral: Mercury
Rruff sample: R070277
Ideal chemistry: Hg
Locality: Socrates Mine, Sonoma County, California, USA
Source: Michael Scott
Description: Grey metallic liquid spheres
Raman shift (cm-1)	intensity
157.376	0
160.268	34.9688
163.161	16.6809
166.054	15.4294
168.946	45.7781
171.839	99.8313
174.732	75.1787
177.625	65.9705
180.517	57.7895
183.41	59.3379
186.303	41.0437
189.195	103.605
192.088	57.9168
194.981	79.6614
197.874	55.8066
200.766	92.6904
203.659	84.9258
206.552	76.1419
209.444	54.8533
212.337	43.8594
215.23	43.8184
218.122	36.6482
221.015	55.375
223.908	54.3987
226.8	54.0129
229.693	79.5271
232.586	100.459
235.479	78.7151
238.371	81.6111
241.264	85.5745
244.157	73.3032
247.049	88.7896
249.942	79.4097
252.835	89.3289
255.727	63.957
258.62	65.6868
261.513	80.9536
264.406	51.5566
267.298	48.0383
270.191	25.0461
273.084	43.9468
275.976	33.053
278.869	83.1687
281.762	56.6943
284.655	82.6304
287.547	51.3975
290.44	54.7417
293.333	32.6318
296.225	46.0762
299.118	13.3062
302.011	32.876
304.904	6.92578
307.796	19.3643
310.689	44.1807
313.582	47.2197
316.474	21.687
319.367	32.2749
322.26	26.5171
325.152	11.1265
328.045	12.7251
330.938	7.03516
333.83	1.48779
336.723	1.37549
339.616	2.75342
342.509	6.14941
345.401	22.8867
348.294	7.89062
351.187	24.1631
354.079	15.1768
356.972	38.2329
359.865	48.3574
362.757	4.06152
365.65	35.417
368.543	4.40137
371.436	18.707
374.328	29.269
377.221	45.7197
380.114	40.7402
383.006	71.0249
385.899	26.7749
388.792	43.0664
391.685	32.6938
394.577	33.5469
397.47	28.9692
400.363	18.1465
403.255	10.1216
406.148	13.2163
409.041	28.4775
411.933	48.8213
414.826	37.9517
417.719	14.1138
420.611	46.4902
423.504	43.9199
426.397	19.6709
429.29	66.2461
432.182	91.1738
435.075	36.0776
437.968	54.4028
440.86	25.3755
443.753	39.3809
446.646	30.8672
449.538	11.2964
452.431	79.4126
455.324	58.8867
458.217	81.0308
461.109	44.8384
464.002	82.9829
466.895	3.31934
469.787	2.9956
472.68	58.0523
475.573	81.5454
478.466	67.0566
481.358	48.3794
484.251	74.9795
487.144	24.3101
490.036	16.25
492.929	74.8984
495.822	44.9697
498.714	19.8823
501.607	5.21045
504.5	14.1904
507.393	43.0376
510.285	9.33008
513.178	46.7842
516.071	57.5303
518.963	3.67432
521.856	21.523
524.749	13.3643
527.641	42.7266
530.534	49.1728
533.427	98.084
536.32	63.748
539.212	47.96
542.105	35.2759
544.998	40.9815
547.89	34.2822
550.783	7.55908
553.676	9.54102
556.568	82.1416
559.461	87.4639
562.354	68.7241
565.247	44.0308
568.139	21.2832
571.032	43.3774
573.925	41.5957
576.817	59.8472
579.71	20.8628
582.603	15.2402
585.495	55.2847
588.388	9.94629
591.281	95.1011
594.174	22.398
597.066	19.7949
599.959	61.1719
602.852	5.38379
605.744	5.01465
608.637	56.771
611.53	47.0898
614.423	16.0395
617.315	10.0322
620.208	29.9673
623.101	17.0645
625.993	67.1226
628.886	58.6567
631.779	40.2432
634.671	67.4624
637.564	78.9277
640.457	40.0776
643.35	22.4111
646.242	0.81543
649.135	46
652.028	105.24
654.92	37.2974
657.813	52.8565
660.706	38.5654
663.598	59.6401
666.491	43.0239
669.384	42.2793
672.277	53.8818
675.169	14.9565
678.062	60.4023
680.955	90.1523
683.847	29.3804
686.74	0.869141
689.633	49.8023
692.525	49.2978
695.418	45.8018
698.311	51.0806
701.204	66.4033
704.096	44.5557
706.989	75.9766
709.882	90.7412
712.774	25.7661
715.667	9.91406
718.56	10.3984
721.452	46.7315
724.345	55.6704
727.238	93.8413
730.131	107.52
733.023	79.9683
735.916	72.8023
738.809	92.5684
741.701	37.1528
744.594	86.8281
747.487	69.9697
750.38	38.3887
753.272	36.6274
756.165	42.773
759.058	24.4844
761.95	71.936
764.843	11.5727
767.736	22.0293
770.628	36.3525
773.521	43.4351
776.414	90.8818
779.307	96.5938
782.199	63.9072
785.092	98.0542
787.985	120.094
790.877	27.7212
793.77	46.502
796.663	17.8013
799.555	31.9551
802.448	38.3198
805.341	19.2642
808.234	47.3389
811.126	34.375
814.019	69.1216
816.912	26.3311
819.804	3.16748
822.697	76.647
825.59	37.8823
828.482	32.5347
831.375	25.3896
834.268	32.2964
837.16	41.752
840.053	16.9829
842.946	62.8789
845.839	16.9922
848.731	62.3901
851.624	13.4565
854.517	34.2266
857.409	58.8799
860.302	72.4434
863.195	31.0947
866.087	21.7534
868.98	7.86768
871.873	57.9898
874.766	93.5156
877.658	13.9058
880.551	24.7305
883.444	76.7964
886.337	34.1143
889.229	14.623
892.122	90.5371
895.015	42.9849
897.907	35.4932
900.8	23.3735
903.693	23.9199
906.585	54.6816
909.478	76.3032
912.371	64.1362
915.264	5.36231
918.156	1.854
921.049	8.16357
923.942	6.00781
926.834	50.8223
929.727	33.8154
932.62	35.9688
935.512	88.4878
938.405	50.3242
941.298	36.7539
944.191	73.3452
947.083	44.4287
949.976	115.308
952.869	42.6406
955.761	103.307
958.654	73.9766
961.547	1.87647
964.439	45.3565
967.332	80.4565
970.225	18.25
973.117	24.8472
976.01	31.1758
978.903	30.9092
981.796	42.419
984.688	27.9653
987.581	31.8477
990.474	8.08789
993.366	57.0566
996.259	60.0767
999.152	56.8984
1002.04	48.8003
1004.94	104.461
1007.83	52.1367
1010.72	44.1899
1013.62	39.0703
1016.51	73.6777
1019.4	31.3174
1022.29	114.541
1025.19	13.373
1028.08	13.7441
1030.97	50.7451
1033.86	19.6357
1036.76	29.1123
1039.65	55.0664
1042.54	16.2354
1045.43	52.3013
1048.33	22.5137
1051.22	56.0371
1054.11	30.5786
1057.01	43.4033
1059.9	1.78857
1062.79	18.0244
1065.68	6.43701
1068.58	33.6938
1071.47	28.1572
1074.36	1.20312
1077.26	59.1362
1080.15	15.9316
1083.04	39.397
1085.93	49.9898
1088.83	67.6284
1091.72	94.3911
1094.61	61.9082
1097.5	39.1602
1100.4	6.69189
1103.29	35.0547
1106.18	18.7183
1109.07	0.807617
1111.97	1.29688
1114.86	49.8359
1117.75	62.4663
1120.64	57.0327
1123.54	38.1357
1126.43	66.4038
1129.32	76.8852
1132.22	51.4355
1135.11	41.7876
1138	25.4521
1140.89	11.7563
1143.79	26.356
1146.68	94.1504
1149.57	63.4971
1152.46	31.002
1155.36	44.6855
1158.25	11.6855
1161.14	26.7769
1164.04	62.523
1166.93	57.7344
1169.82	45.3306
1172.71	149.309
1175.61	87.0986
1178.5	111.175
1181.39	80.8013
1184.29	65.5161
1187.18	67.1514
1190.07	58.3101
1192.96	55.8218
1195.86	106.604
1198.75	131.468
1201.64	70.3364
1204.53	102.431
1207.43	55.7847
1210.32	104.143
1213.21	30.1763
1216.1	26.1445
1219	73.25
1221.89	28.5869
1224.78	77.0772
1227.67	128.107
1230.57	87.1309
1233.46	22.4199
1236.35	28.6631
1239.25	52.2109
1242.14	56.3418
1245.03	69.3584
1247.92	83.375
1250.82	115.39
1253.71	45.4648
1256.6	69.3828
1259.49	57.4434
1262.39	60.4541
1265.28	2.40527
1268.17	103.401
1271.07	19.9033
1273.96	51.4785
1276.85	105.569
1279.74	19.5801
1282.64	46.8223
1285.53	99.293
1288.42	43.8076
1291.32	40.1006
1294.21	72.0508
1297.1	11.0518
1299.99	37.1016
1302.88	4.93652
