Measurement: Raman, 785 nm, unoriented, Raman Data Processed
Mineral: Mercury
Rruff sample: R070277
Ideal chemistry: Hg
Locality: Socrates Mine, Sonoma County, California, USA
Source: Michael Scott
Description: Grey metallic liquid spheres
Raman shift (cm-1)	intensity
217.925	0
220.818	43.8679
223.71	52.5232
226.603	12.0603
229.496	52.1311
232.388	31.9744
235.281	31.2476
238.174	16.0542
241.066	62.0708
243.959	20.5344
246.852	68.905
249.745	43.3828
252.637	61.1135
255.53	26.1003
258.423	49.104
261.315	40.042
264.208	50.0149
267.101	29.6826
269.993	45.5178
272.886	43.8413
275.779	34.7105
278.672	50.7673
281.564	60.019
284.457	35.5176
287.35	22.4988
290.242	5.86914
293.135	11.6306
296.028	16.4683
298.921	33.719
301.813	6.78003
304.706	28.1411
307.599	23.123
310.491	14.3652
313.384	35.3603
316.277	13.9585
319.169	23.1023
322.062	16.2551
324.955	7.01538
327.847	45.282
330.74	39.2925
333.633	29.7473
336.526	36.7334
339.418	27.6838
342.311	40.6885
345.204	61.7947
348.096	64.1184
350.989	19.6152
353.882	34.4565
356.774	46.1553
359.667	31.9993
362.56	47.2495
365.452	49.1645
368.345	1.11206
371.238	65.4377
374.131	23.9448
377.023	40.9307
379.916	52.8975
382.809	4.50391
385.701	8.42627
388.594	24.7371
391.487	35.2366
394.38	14.3408
397.272	36.2429
400.165	28.8689
403.058	44.2715
405.95	29.4002
408.843	51.727
411.736	8.42627
414.628	31.0164
417.521	2.29053
420.414	27.2358
423.307	44.406
426.199	29.9846
429.092	22.7573
431.985	37.2986
434.877	12.1287
437.77	25.6719
440.663	9.89941
443.555	21.521
446.448	13.6067
449.341	25.0847
452.234	26.6834
455.126	26.3516
458.019	18.7495
460.912	30.1355
463.804	45.0437
466.697	46.1414
469.59	40.8267
472.483	6.21851
475.375	42.6006
478.268	26.3855
481.161	52.8997
484.053	8.84155
486.946	24.7529
489.839	45.1467
492.731	38.5151
495.624	40.8669
498.517	67.9006
501.409	41.5281
504.302	60.2537
507.195	2.88892
510.088	16.7605
512.98	39.083
515.873	24.4241
518.766	17.6428
521.658	47.8267
524.551	5.1394
527.444	36.4292
530.337	13.876
533.229	22.6113
536.122	0.105957
539.015	30.9334
541.907	60.115
544.8	23.5962
547.693	11.136
550.585	12.1277
553.478	5.70532
556.371	5.76318
559.263	70.5718
562.156	9.29639
565.049	29.2026
567.942	28.4031
570.834	21.332
573.727	51.2883
576.62	18.6882
579.512	27.106
582.405	39.8267
585.298	34.1365
588.19	54.1921
591.083	8.76025
593.976	46.5325
596.869	27.5154
599.761	14.7583
602.654	6.38257
605.547	46.4756
608.439	29.5701
611.332	17.6414
614.225	35.2517
617.117	56.1331
620.01	18.9316
622.903	25.4219
625.795	33.9246
628.688	11.8689
631.581	4.08032
634.474	36.6384
637.366	23.6992
640.259	41.146
643.152	17.4089
646.044	14.6277
648.937	21.4277
651.83	8.70898
654.722	23.3931
657.615	0.404053
660.508	7.93115
663.401	79.5757
666.293	30.7561
669.186	61.5081
672.079	47.6287
674.971	14.7554
677.864	35.9316
680.757	36.8093
683.649	43.5991
686.542	16.009
689.435	11.9192
692.328	11.1668
695.22	27.8201
698.113	39.6323
701.006	52.9065
703.898	74.6894
706.791	17.7583
709.684	37.9822
712.577	33.5835
715.469	17.0237
718.362	21.5115
721.255	25.199
724.147	12.3957
727.04	7.90234
729.933	31.884
732.825	37.0649
735.718	5.94653
738.611	25.3977
741.504	29.7581
744.396	17.8928
747.289	5.24243
750.182	57.9817
753.074	51.0999
755.967	42.4089
758.86	12.416
761.752	28.3816
764.645	35.2212
767.538	22.6113
770.431	13.9724
773.323	26.9355
776.216	12.9258
779.109	52.564
782.001	10.6685
784.894	33.3093
787.787	35.1582
790.679	37.979
793.572	13.7771
796.465	19.4863
799.357	15.9399
802.25	40.0461
805.143	21.727
808.036	43.2246
810.928	14.5046
813.821	23.9785
816.714	10.1658
819.606	37.4695
822.499	26.8816
825.392	64.5859
828.284	28.1533
831.177	27.9424
834.07	26.6792
836.963	47.5747
839.855	10.6328
842.748	21.3667
845.641	1.85498
848.533	44.4641
851.426	26.125
854.319	41.4085
857.212	40.8918
860.104	34.7776
862.997	28.6963
865.89	22.5706
868.782	29.2791
871.675	39.2163
874.568	28.4094
877.46	21.0232
880.353	16.6135
883.246	41.8323
886.139	17.8613
889.031	81.0854
891.924	47.1501
894.817	2.77295
897.709	20.4724
900.602	43.4646
903.495	54.9109
906.388	21.3005
909.28	10.0503
912.173	29.2964
915.066	37.9585
917.958	6.54932
920.851	20.5327
923.744	11.0986
926.636	23.9277
929.529	22.6997
932.422	7.06592
935.314	21.2454
938.207	29.3789
941.1	27.5146
943.993	33.5371
946.885	2.69165
949.778	16.9917
952.671	27.208
955.563	22.5005
958.456	34.8682
961.349	60.1399
964.241	23.7791
967.134	44.9675
970.027	32.2651
972.92	3.0918
975.812	25.4946
978.705	38.199
981.598	57.2065
984.49	33.5952
987.383	29.2944
990.276	15.7146
993.168	55.6611
996.061	11.5896
998.954	45.3289
1001.85	62.5745
1004.74	44.6609
1007.63	21.7634
1010.52	13.9241
1013.42	19.9221
1016.31	2.0415
1019.2	44.7329
1022.1	10.6741
1024.99	33.2612
1027.88	45.8796
1030.77	38.6973
1033.67	16.6506
1036.56	13.8777
1039.45	26.8528
1042.34	16.8245
1045.24	19.4175
1048.13	41.0642
1051.02	23.8237
1053.91	17.7009
1056.81	5.5022
1059.7	28.1362
1062.59	35.0908
1065.49	47.761
1068.38	2.76587
1071.27	6.30981
1074.16	21.9177
1077.06	28.4705
1079.95	35.8957
1082.84	5.83228
1085.73	11.6753
1088.63	15.6409
1091.52	30.6655
1094.41	25.887
1097.31	2.81616
1100.2	43.1992
1103.09	7.35962
1105.98	35.7361
1108.88	16.4116
1111.77	16.0845
1114.66	28.5393
1117.56	66.3938
1120.45	33.4819
1123.34	48.2793
1126.23	23.5093
1129.12	15.9236
1132.02	47.2109
1134.91	16.467
1137.8	28.7268
1140.7	35.8486
1143.59	36.3574
1146.48	36.6228
1149.37	14.625
1152.27	38.9221
1155.16	54.529
1158.05	10.3166
1160.94	39.8149
1163.84	72.509
1166.73	23.9631
1169.62	27.5266
1172.52	19.9377
1175.41	1.92969
1178.3	41.0408
1181.19	26.9311
1184.09	24.6399
1186.98	1.29785
1189.87	33.0195
1192.77	1.56665
1195.66	83.2756
1198.55	50.4121
1201.44	43.4038
1204.34	38.3992
1207.23	25.699
1210.12	24.9268
1213.01	25.5212
1215.91	21.9163
1218.8	15.5974
1221.69	47.0542
1224.58	0.43335
1227.48	4.02588
