Measurement: Raman, 780 nm, unoriented, Raman Data Processed
Mineral: Metaschoderite
Rruff sample: R100023
Ideal chemistry: AlPO_4_3H_2_O
Locality: Fish Creek Range, Eureka County, Nevada, USA
Source: Marcus Origlieri
Description: Microcrystalline greenish-yellow coating
Raman shift (cm-1)	intensity
101.175	0
104.55	1.30795
107.925	2.4323
111.3	1.66783
114.675	2.68071
118.05	2.63175
121.424	2.45619
124.799	1.63786
128.174	0.278563
131.549	2.92655
134.924	2.29685
138.298	3.27121
141.673	1.87297
145.048	2.83281
148.423	2.48364
151.798	1.33746
155.173	1.40999
158.547	3.61075
161.922	4.83
165.297	4.53968
168.672	4.37981
172.047	5.27126
175.422	3.74126
178.796	3.44496
182.171	4.9347
185.546	5.58697
188.921	3.7595
192.296	3.86234
195.67	3.18928
199.045	3.20429
202.42	1.37055
205.795	1.66132
209.17	3.40608
212.544	4.60335
215.919	7.33564
219.294	9.11475
222.669	10.6619
226.044	12.4422
229.419	15.7191
232.793	19.3557
236.168	19.3328
239.543	12.7352
242.918	6.76209
246.293	5.19895
249.667	3.98349
253.042	4.92513
256.417	3.12126
259.792	0.235435
263.167	3.22751
266.542	0.708591
269.916	0.0173
273.291	0.549566
276.666	1.90508
280.041	0.545153
283.416	1.33724
286.791	1.91129
290.165	0.615326
293.54	2.65851
296.915	0.713934
300.29	2.54083
303.665	4.00086
307.039	4.0938
310.414	4.3435
313.789	4.89142
317.164	5.52272
320.539	5.06766
323.913	5.41466
327.288	3.58276
330.663	4.81076
334.038	1.44828
337.413	2.5646
340.788	1.75909
344.162	2.4063
347.537	3.18572
350.912	2.69592
354.287	1.35917
357.662	3.26276
361.036	2.5869
364.411	1.05863
367.786	1.57239
371.161	3.50833
374.536	1.54121
377.911	0.693439
381.285	1.78999
384.66	2.57742
388.035	0.044823
391.41	0.162575
394.785	2.4413
398.159	3.59482
401.534	3.06799
404.909	1.02673
408.284	2.19705
411.659	3.17021
415.034	2.13206
418.408	1.89949
421.783	0.743078
425.158	1.77552
428.533	1.42733
431.908	1.8929
435.282	0.316515
438.657	3.00096
442.032	1.85235
445.407	2.51396
448.782	0.571503
452.156	4.29722
455.531	1.29794
458.906	0.672852
462.281	3.11403
465.656	2.20402
469.031	1.96756
472.405	0.668566
475.78	2.97234
479.155	1.34821
482.53	0.862384
485.905	0.004515
489.279	3.02074
492.654	1.07211
496.029	3.11894
499.404	0.553534
502.779	2.48775
506.154	1.49433
509.528	0.781693
512.903	1.15212
516.278	2.24348
519.653	1.22826
523.028	2.69183
526.403	1.62383
529.777	1.52955
533.152	2.76109
536.527	1.57179
539.902	1.3548
543.277	1.5341
546.651	0.000217
550.026	1.18142
553.401	0.322105
556.776	0.761419
560.151	3.19055
563.525	2.23655
566.9	1.80668
570.275	2.17033
573.65	1.92298
577.025	2.68646
580.399	2.86583
583.774	2.99825
587.149	0.500567
590.524	3.93671
593.899	2.49235
597.274	3.09733
600.649	3.27873
604.023	1.96675
607.398	1.05626
610.773	1.72983
614.148	0.647897
617.523	2.15375
620.897	1.61909
624.272	1.99988
627.647	1.55578
631.022	1.40084
634.397	1.82215
637.771	1.61096
641.146	2.4892
644.521	2.89687
647.896	2.29892
651.271	1.07149
654.646	0.796834
658.02	3.82929
661.395	2.41664
664.77	1.72728
668.145	0.769568
671.52	2.02813
674.894	2.02853
678.269	1.56247
681.644	1.20422
685.019	1.7851
688.394	1.88706
691.769	1.80772
695.143	0.835191
698.518	0.508651
701.893	0.020562
705.268	0.866538
708.643	2.03157
712.018	1.86594
715.392	0.036676
718.767	1.159
722.142	1.20216
725.517	1.50276
728.891	3.46953
732.266	2.43126
735.641	2.27069
739.016	2.07684
742.391	1.7026
745.766	2.69877
749.14	1.74232
752.515	1.48193
755.89	0.621131
759.265	1.59086
762.64	0.520868
766.014	0.64642
769.389	2.45932
772.764	0.62651
776.139	2.68744
779.514	0.516731
782.889	0.63278
786.263	2.24098
789.638	0.343526
793.013	0.990955
796.388	0.183727
799.763	0.967901
803.138	1.99361
806.512	1.03589
809.887	1.63133
813.262	1.88731
816.637	1.34928
820.012	2.57714
823.386	2.42572
826.761	1.98214
830.136	2.1096
833.511	3.38534
836.886	0.892911
840.26	1.98564
843.635	1.59568
847.01	1.48203
850.385	1.78904
853.76	0.685115
857.135	1.10613
860.509	2.10546
863.884	0.482512
867.259	0.035201
870.634	0.700782
874.009	1.48435
877.384	0.180266
880.758	1.79003
884.133	0.585878
887.508	0.686393
890.883	1.33518
894.258	2.91644
897.632	0.024372
901.007	2.42448
904.382	2.08415
907.757	0.236598
911.132	1.41175
914.506	2.22066
917.881	0.316896
921.256	0.331676
924.631	0.980981
928.006	1.11118
931.381	1.41093
934.755	2.66748
938.13	1.77704
941.505	2.87755
944.88	2.08616
948.255	2.07649
951.63	1.6326
955.004	2.13976
958.379	2.574
961.754	4.45735
965.129	4.11238
968.504	3.20459
971.878	3.87949
975.253	6.64695
978.628	4.94217
982.003	7.05084
985.378	6.53033
988.752	5.29964
992.127	5.71443
995.502	6.36449
998.877	6.78911
1002.25	4.50066
1005.63	4.92998
1009	4.07959
1012.38	2.11107
1015.75	1.4856
1019.13	2.23019
1022.5	1.02308
1025.88	2.30688
1029.25	0.379925
1032.62	1.32564
1036	0.691137
1039.38	0.829309
1042.75	0.05224
1046.12	1.19616
1049.5	2.91089
1052.87	1.67819
1056.25	2.51013
1059.62	1.55121
1063	0.485344
1066.37	1.62255
1069.75	1.80726
1073.12	1.71199
1076.5	1.20182
1079.87	1.31462
1083.25	3.95509
1086.62	1.36913
1090	1.50902
1093.37	2.10987
1096.75	0.759092
1100.12	1.19627
1103.5	0.265228
1106.87	1.60807
1110.25	2.63329
1113.62	0.372543
1116.99	1.72967
1120.37	1.50144
1123.74	0.761891
1127.12	1.21092
1130.49	1.96665
1133.87	0.147302
1137.24	2.91861
1140.62	0.854063
1143.99	1.50269
1147.37	0.989061
1150.74	1.3381
1154.12	1.93427
1157.49	2.01606
1160.87	1.46699
1164.24	0.914977
1167.62	2.68849
1170.99	0.877766
1174.37	1.67903
1177.74	2.56269
1181.12	1.47652
1184.49	2.37782
1187.87	2.07813
1191.24	2.24194
1194.62	1.7067
1197.99	0.210801
1201.37	3.62687
1204.74	0.203676
1208.12	1.18514
1211.49	2.60979
1214.87	3.2569
1218.24	1.48287
1221.62	2.65263
1224.99	0.14711
1228.37	1.6475
1231.74	2.5765
1235.11	0.751599
1238.49	1.30936
1241.86	0.626232
1245.24	3.38416
1248.61	2.0009
1251.99	0.094842
1255.36	0.883341
1258.74	1.69171
1262.11	3.41947
1265.49	2.51976
1268.86	2.25107
1272.24	1.57968
1275.61	4.45015
1278.99	3.88214
1282.36	0.640486
1285.74	0
