Measurement: Raman, 532 nm, unoriented, Raman Data Processed
Mineral: Metahewettite
Rruff sample: R070199
Ideal chemistry: CaV^5+^_6_O_16_3H_2_O
Locality: Fish Creek Range, south of Eureka, Eureka County, Nevada, USA
Source: James Shigley
Description: Red pulverulent coating
Raman shift (cm-1)	intensity
149.7	0
152.592	40.8103
155.485	88.0584
158.378	97.371
161.27	65.5295
164.163	58.8585
167.056	49.0997
169.948	34.6296
172.841	19.6947
175.734	0.766235
178.627	0.154053
181.519	18.024
184.412	5.16492
187.305	3.67175
190.197	4.96277
193.09	27.3807
195.983	14.131
198.875	30.5283
201.768	38.9794
204.661	23.3395
207.554	13.2245
210.446	62.8329
213.339	31.3628
216.232	55.5157
219.124	46.5342
222.017	70.4875
224.91	40.3268
227.803	78.0598
230.695	47.6127
233.588	60.2529
236.481	57.7082
239.373	69.1202
242.266	43.9644
245.159	79.1537
248.051	59.5352
250.944	84.9281
253.837	102.044
256.729	106.108
259.622	106.171
262.515	92.1501
265.408	76.9172
268.3	124.905
271.193	112.955
274.086	140.14
276.978	141.599
279.871	154.886
282.764	198.272
285.656	191.1
288.549	203.113
291.442	226.673
294.335	186.469
297.227	185.74
300.12	191.784
303.013	173.56
305.905	160.762
308.798	202.148
311.691	163.471
314.584	171.088
317.476	198.1
320.369	183.67
323.262	168.269
326.154	160.111
329.047	154.084
331.94	133.073
334.832	101.357
337.725	116.022
340.618	85.208
343.51	69.1514
346.403	63.7103
349.296	77.3882
352.189	34.2322
355.081	32.4514
357.974	8.01587
360.867	21.2669
363.76	9.81958
366.652	9.67248
369.545	5.93091
372.438	18.9343
375.33	6.36499
378.223	15.559
381.116	4.76355
384.008	0.460449
386.901	5.56384
389.794	10.7417
392.687	12.5961
395.579	0.707642
398.472	29.0939
401.365	25.347
404.257	10.952
407.15	24.5809
410.043	4.19226
412.935	26.6005
415.828	47.5721
418.721	25.3656
421.613	26.7817
424.506	41.6003
427.399	43.962
430.292	86.1904
433.184	60.2966
436.077	68.6166
438.97	74.4567
441.862	44.615
444.755	85.7598
447.648	64.6681
450.541	94.837
453.433	83.578
456.326	72.5596
459.219	55.1062
462.111	87.0365
465.004	109.573
467.897	104.63
470.789	84.9596
473.682	90.6588
476.575	112.463
479.467	95.7202
482.36	73.187
485.253	77.1849
488.146	82.5577
491.038	75.3412
493.931	37.6903
496.824	21.7434
499.716	23.6542
502.609	8.6593
505.502	39.9711
508.394	10.1325
511.287	11.1216
514.18	45.8788
517.073	37.309
519.965	34.2413
522.858	16.6367
525.751	4.70471
528.643	32.8367
531.536	43.8712
534.429	22.5371
537.322	28.1252
540.214	17.0198
543.107	57.8335
546	35.4568
548.892	49.2876
551.785	36.0908
554.678	13.052
557.57	33.6977
560.463	66.3501
563.356	19.3198
566.249	33.4883
569.141	46.8813
572.034	59.5261
574.927	36.7971
577.819	46.8904
580.712	44.2803
583.605	9.71509
586.497	58.8262
589.39	5.51392
592.283	6.13159
595.176	12.9443
598.068	6.41309
600.961	32.429
603.854	48.1626
606.746	17.7998
609.639	1.82764
612.532	35.8897
615.424	18.7044
618.317	8.7373
621.21	39.5469
624.103	31.4111
626.995	17.9807
629.888	8.17773
632.781	17.2734
635.673	20.0964
638.566	2.93164
641.459	10.4197
644.351	0.539795
647.244	18.2825
650.137	19.7634
653.03	17.1165
655.922	18.926
658.815	5.8689
661.708	20.6709
664.6	41.2825
667.493	34.4868
670.386	17.2236
673.279	20.543
676.171	28.606
679.064	16.0129
681.957	38.9951
684.849	30.6375
687.742	24.8005
690.635	11.6704
693.527	14.1721
696.42	27.9793
699.313	18.8491
702.206	17.4275
705.098	11.7231
707.991	64.3406
710.884	67.1397
713.776	61.7246
716.669	61.9485
719.562	49.0784
722.454	103.018
725.347	73.3367
728.24	119.758
731.133	111.731
734.025	90.6406
736.918	97.886
739.811	114.508
742.703	110.385
745.596	126.665
748.489	132.206
751.381	141.359
754.274	113.944
757.167	136.058
760.06	106.202
762.952	142.65
765.845	101.851
768.738	85.332
771.63	130.486
774.523	116.792
777.416	113.286
780.308	109.61
783.201	94.1045
786.094	103.447
788.987	92.3577
791.879	58.4905
794.772	73.5371
797.665	68.4729
800.557	22.7222
803.45	74.7493
806.343	23.2988
809.236	24.0863
812.128	5.09033
815.021	8.39075
817.914	29.6803
820.806	29.2082
823.699	0.633911
826.592	16.6359
829.484	11.0496
832.377	21.2633
835.27	6.67847
838.163	12.5964
841.055	2.57251
843.948	3.85535
846.841	17.6433
849.733	23.9628
852.626	11.3367
855.519	13.5175
858.411	20.8313
861.304	31.6799
864.197	27.8186
867.09	37.4479
869.982	9.19128
872.875	29.0079
875.768	44.9051
878.66	25.5249
881.553	24.4299
884.446	38.3861
887.338	42.0936
890.231	31.8623
893.124	6.21252
896.016	26.967
898.909	26.4557
901.802	20.6067
904.695	42.8606
907.587	18.9927
910.48	24.5165
913.373	44.733
916.265	32.0898
919.158	7.60742
922.051	24.6654
924.943	22.171
927.836	31.0533
930.729	23.2245
933.622	24.7122
936.514	2.83606
939.407	20.9963
942.3	15.4128
945.192	28.1608
948.085	9.84912
950.978	17.0952
953.87	17.7031
956.763	33.6556
959.656	15.0189
962.549	9.35596
965.441	27.7035
968.334	51.5482
971.227	63.3323
974.119	39.8539
977.012	30.1516
979.905	29.6283
982.798	34.0504
985.69	39.7304
988.583	62.3326
991.476	57.5077
994.368	72.0295
997.261	63.3607
1000.15	58.2513
1003.05	66.0562
1005.94	79.4847
1008.83	10.0449
1011.73	53.3321
1014.62	12.038
1017.51	7.92676
1020.4	12.4886
1023.29	8.59631
1026.19	10.5966
1029.08	33.5757
1031.97	40.3425
1034.87	34.7766
1037.76	19.0499
1040.65	14.0577
1043.54	16.4041
1046.44	23.1627
1049.33	18.0792
1052.22	13.9526
1055.12	4.69922
1058.01	19.1816
1060.9	33.2664
1063.79	29.2145
1066.69	54.8152
1069.58	11.1831
1072.47	47.7504
1075.36	20.4833
1078.26	35.7869
1081.15	63.207
1084.04	40.4291
1086.93	32.0919
1089.83	10.4331
1092.72	30.4373
1095.61	48.6306
1098.51	38.3614
1101.4	25.1769
1104.29	51.9895
1107.18	42.4948
1110.08	37.3127
1112.97	6.61743
1115.86	38.5044
1118.76	12.403
1121.65	5.75745
1124.54	42.3248
1127.43	33.1339
1130.33	2.95557
1133.22	34.4273
1136.11	55.2668
1139	0.926392
1141.9	5.08447
1144.79	17.4941
1147.68	28.9869
1150.57	25.0392
1153.47	14.4214
1156.36	20.9928
1159.25	31.6138
1162.14	37.8125
1165.04	48.4258
1167.93	36.8325
1170.82	24.2856
1173.72	34.8208
1176.61	26.7667
1179.5	25.9946
1182.39	27.3707
1185.29	10.5775
1188.18	12.8227
1191.07	19.9634
1193.96	31.2454
1196.86	39.4301
1199.75	1.33545
1202.64	11.739
1205.54	57.2801
1208.43	21.8023
1211.32	37.5341
1214.21	36.0173
1217.11	52.0366
1220	49.8796
1222.89	42.4631
1225.78	47.219
1228.68	18.5028
1231.57	43.4149
1234.46	46.056
1237.36	9.35364
1240.25	35.0387
1243.14	52.2089
1246.03	43.0996
1248.93	39.5447
1251.82	15.7172
1254.71	43.4337
1257.6	13.8546
1260.5	46.5319
1263.39	53.4948
1266.28	21.8535
1269.17	1.24206
1272.07	67.5548
1274.96	11.4617
1277.85	9.44519
1280.75	38.0305
1283.64	42.6215
1286.53	13.2559
1289.42	2.72156
1292.32	0.675415
