Measurement: Raman, 532 nm, unoriented, Raman Data RAW
Mineral: Meta-autunite
Rruff sample: R060434
Ideal chemistry: Ca(U^6+^O_2_)_2_(PO_4_)_2_6H_2_O
Locality: Hyverneresse, Creuse, France
Source: Michael Scott
Description: Yellow thin tabular crystal
Measured chemistry: (Ca_0.88_Sr_0.10_)_∑=0.98_(UO_2_)_1.96_(PO_4_)_2.05_·3.60H_2_O
Raman shift (cm-1)	intensity
170.584	85816.4
173.477	88833.6
176.37	90685.6
179.263	91121.3
182.155	91067.4
185.048	91810.6
187.941	92512.1
190.833	93265
193.726	93569.1
196.619	93355.9
199.512	93342.3
202.404	93485.3
205.297	93655.4
208.19	93640.8
211.082	93579.3
213.975	93695.8
216.868	93697.3
219.761	93673.8
222.653	93655.7
225.546	93660
228.439	93663.8
231.331	93550.7
234.224	93576.3
237.117	93891.4
240.009	94399.7
242.902	95039.1
245.795	95601.3
248.688	96172.2
251.58	96668.2
254.473	97128.2
257.366	97705.8
260.258	98282.3
263.151	98927.1
266.044	99550
268.936	100236
271.829	100757
274.722	101739
277.615	102281
280.507	102998
283.4	103950
286.293	105193
289.185	106491
292.078	107426
294.971	108308
297.863	109397
300.756	110427
303.649	111668
306.541	113129
309.434	114396
312.327	115542
315.22	116894
318.112	118380
321.005	119362
323.898	120636
326.791	121995
329.683	123322
332.576	124398
335.469	125773
338.361	127101
341.254	128634
344.147	130020
347.039	131342
349.932	133033
352.825	134585
355.717	136238
358.61	137714
361.503	139424
364.396	141372
367.288	143217
370.181	145227
373.074	147471
375.966	149868
378.859	152648
381.752	155098
384.644	157553
387.537	160204
390.43	162930
393.323	165562
396.215	167907
399.108	170570
402.001	172851
404.894	175366
407.786	177273
410.679	179420
413.572	182362
416.464	185510
419.357	188341
422.25	191175
425.142	193553
428.035	196070
430.928	198715
433.82	200853
436.713	203134
439.606	205580
442.499	207712
445.391	209583
448.284	212143
451.177	214450
454.069	216714
456.962	218840
459.855	221221
462.748	223247
465.64	225721
468.533	227770
471.426	229792
474.318	231314
477.211	232498
480.104	233639
482.996	234451
485.889	235505
488.782	237007
491.675	238544
494.567	239964
497.46	240810
500.353	241323
503.245	241681
506.138	241580
509.031	242190
511.923	243117
514.816	243730
517.709	243837
520.602	244382
523.494	244952
526.387	245213
529.28	245150
532.172	244967
535.065	244464
537.958	243578
540.851	242761
543.743	241658
546.636	240654
549.529	239664
552.421	237996
555.314	236346
558.207	234377
561.099	232196
563.992	230307
566.885	228464
569.778	226679
572.67	224224
575.563	221735
578.456	219290
581.348	217283
584.241	215133
587.134	213779
590.027	211108
592.919	208464
595.812	205740
598.705	203536
601.597	201103
604.49	198195
607.383	195188
610.275	192693
613.168	190130
616.061	187547
618.953	185176
621.846	182498
624.739	180063
627.632	177750
630.524	175134
633.417	172514
636.31	170183
639.202	168180
642.095	166149
644.988	163483
647.881	160710
650.773	157624
653.666	155845
656.559	154155
659.451	152507
662.344	150342
665.237	148267
668.13	146183
671.022	144406
673.915	142719
676.808	140796
679.7	138706
682.593	136994
685.486	134992
688.378	133085
691.271	131089
694.164	128562
697.057	126424
699.949	124691
702.842	122934
705.735	121322
708.627	119543
711.52	117706
714.413	116071
717.305	114427
720.198	112581
723.091	110810
725.984	109304
728.876	108100
731.769	106523
734.662	105327
737.554	103873
740.447	102889
743.34	101298
746.232	100004
749.125	98663.5
752.018	97491.2
754.91	96179.6
757.803	95198
760.696	94040.4
763.589	93013.9
766.481	91938.1
769.374	90842.4
772.267	89800.7
775.159	88733.2
778.052	87697.8
780.945	86931.8
783.838	85883.1
786.73	84853.9
789.623	83666.6
792.516	82842.6
795.408	81978.8
798.301	81268.1
801.194	80783.9
804.087	79976.5
806.979	79376.4
809.872	79116.9
812.765	78797.7
815.657	78675.7
818.55	78503.2
821.443	78527.1
824.335	78500.4
827.228	79464
830.121	81604.2
833.014	84264.8
835.906	84317.1
838.799	80386.4
841.692	74703.9
844.584	70521
847.477	68520.3
850.37	67306.2
853.263	66593.5
856.155	65892.9
859.048	65160.2
861.941	64624.3
864.833	64238.4
867.726	63794.7
870.619	63420.2
873.511	62879.6
876.404	62236.1
879.297	61643.6
882.189	61137.9
885.082	60367
887.975	59708.1
890.868	58978.2
893.76	58250.1
896.653	57677.9
899.546	57136.5
902.438	56587.3
905.331	56244.9
908.224	55866
911.116	55469.8
914.009	55179.8
916.902	54925.9
919.795	54616.1
922.687	54351.9
925.58	54198.1
928.473	53934.9
931.365	53536.1
934.258	53260.2
937.151	52788.9
940.044	52306
942.936	51865.3
945.829	51650.7
948.722	51244.4
951.614	50880
954.507	50648.6
957.4	50369.8
960.293	50107.6
963.185	49923.2
966.078	49880.8
968.971	49844.4
971.863	49709.7
974.756	49946
977.649	50519.7
980.541	51280.4
983.434	52218.6
986.327	53130.4
989.22	53528.5
992.112	52932.7
995.005	51802
997.898	51375.2
1000.79	51898.4
1003.68	52982.3
1006.58	54297.9
1009.47	55418
1012.36	55724.4
1015.25	55307.4
1018.15	54134.5
1021.04	52804.4
1023.93	51394.3
1026.83	50431.4
1029.72	49882.1
1032.61	49591
1035.5	49432.2
1038.4	49114.4
1041.29	48837.6
1044.18	48631.7
1047.07	48366
1049.97	48329.1
1052.86	48206.9
1055.75	48137
1058.64	48139.9
1061.54	48058.4
1064.43	48024.3
1067.32	47954.5
1070.21	48135.5
1073.11	48131.1
1076	48115.4
1078.89	48106.4
1081.79	48180
1084.68	48232
1087.57	48254.1
1090.46	48275.3
1093.36	48446.1
1096.25	48523.7
1099.14	48749.3
1102.04	49025.3
1104.93	49326.8
1107.82	49550.8
1110.71	49829.7
1113.61	50054.3
1116.5	50164.6
1119.39	50337.9
1122.28	50606.1
1125.18	50654.7
1128.07	50974.8
1130.96	51116.4
1133.86	51236.4
1136.75	51303.2
1139.64	51479.9
1142.53	51682.6
1145.43	51817.7
1148.32	52049.2
1151.21	52085.1
1154.1	52326.2
1157	52634.6
1159.89	52997.2
1162.78	53454.9
1165.67	53855.4
1168.57	54132.9
1171.46	54451.5
1174.35	54758.9
1177.24	55077.4
1180.14	55355.3
1183.03	55715.6
1185.92	56226.1
1188.82	56573
1191.71	57120.7
1194.6	57394
1197.49	57960.8
1200.39	58237.1
1203.28	58563.9
1206.17	59000.3
1209.07	59555.8
1211.96	60238.7
1214.85	60786.6
1217.74	61211.1
1220.64	61786.8
1223.53	62381.3
1226.42	63130.8
1229.31	63818.8
1232.21	64504.9
1235.1	64999
1237.99	65453.2
1240.88	65870.7
1243.78	66595
1246.67	67265.2
1249.56	67988.3
1252.45	68605.9
1255.35	69257.7
1258.24	70135.9
1261.13	70965.9
1264.03	71723.4
1266.92	72405
1269.81	73328.1
1272.7	74084.1
1275.6	74923.5
1278.49	75406.8
1281.38	76042.8
1284.28	76807.5
1287.17	77479.7
1290.06	78180.6
1292.95	78794.1
1295.85	79485.1
1298.74	80071.1
1301.63	80422.9
