Measurement: Raman, 532 nm, unoriented, Raman Data Processed
Mineral: Meta-autunite
Rruff sample: R060476
Ideal chemistry: Ca(U^6+^O_2_)_2_(PO_4_)_2_6H_2_O
Locality: San Pedro mine, Malacheta, Minas Gerais, Brazil
Source: Michael Scott
Description: Book of yellowish-green thin tabular crystals
Measured chemistry: (Ca_0.87_Sr_0.05_Ba_0.04_)_∑=0.96_(UO_2_)_1.95_(PO_4_)_2.08_·4.10H_2_O
Raman shift (cm-1)	intensity
153.71	0
156.603	164.921
159.496	1207.75
162.388	2377.05
165.281	3361.28
168.174	4259.56
171.067	4900.56
173.959	5295.59
176.852	5635.57
179.745	5710.94
182.637	5520.84
185.53	5316.81
188.423	5220.69
191.315	5169.96
194.208	5051.66
197.101	4702.57
199.994	4496.88
202.886	4228.93
205.779	4015.39
208.672	3807.34
211.565	3509.8
214.457	3116.65
217.35	2869.45
220.243	2654.61
223.135	2409.35
226.028	2153.19
228.921	1932.73
231.813	1644.37
234.706	1404.52
237.599	1239.68
240.492	1100.18
243.384	946.031
246.277	843.596
249.17	663.416
252.062	514.299
254.955	423.615
257.848	274.287
260.74	253.461
263.633	190.393
266.526	146.81
269.418	81.9824
272.311	39.8281
275.204	47.6328
278.097	80.0019
280.989	202.158
283.882	176.715
286.775	36.8906
289.667	70.8535
292.56	94.5762
295.453	89.3887
298.346	100.562
301.238	154.424
304.131	256.342
307.024	327.266
309.916	390.404
312.809	441.957
315.702	570.24
318.594	629.826
321.487	580.008
324.38	592.936
327.273	626.84
330.165	613.238
333.058	475.402
335.951	483.707
338.843	387.188
341.736	288.707
344.629	221.543
347.522	225.523
350.414	209.426
353.307	163.934
356.2	166.637
359.092	95.832
361.985	30.5352
364.878	15.457
367.77	29.5039
370.663	119.496
373.556	5.54688
376.449	64.6914
379.341	7.58802
382.234	5.73438
385.127	36.6797
388.019	73.293
390.912	32.5039
393.805	4.14453
396.697	57.2773
399.59	50.1328
402.483	104.656
405.376	72.8594
408.268	50.2344
411.161	133.719
414.054	57.4961
416.946	48.7773
419.839	104.84
422.732	106.488
425.625	16.6055
428.517	31.6328
431.41	139.266
434.303	130.5
437.195	233.566
440.088	306.16
442.981	373.113
445.873	264.527
448.766	339.586
451.659	408.773
454.551	434.125
457.444	538.215
460.337	692.484
463.23	863.266
466.122	1136.56
469.015	1351.07
471.908	1537.33
474.8	1672.03
477.693	1894
480.586	2007.03
483.479	2122.02
486.371	2280.16
489.264	2580.54
492.157	2859.72
495.049	3182.59
497.942	3330.35
500.835	3333.53
503.728	3382.78
506.62	3296.25
509.513	3410.57
512.406	3610.57
515.298	3634.24
518.191	3467.68
521.084	3481.98
523.976	3468.98
526.869	3341.19
529.762	3035.42
532.654	2788.8
535.547	2675.43
538.44	2498.6
541.333	2361.45
544.225	2231.8
547.118	2072.39
550.011	2056.47
552.903	1828.1
555.796	1642.17
558.689	1513.32
561.582	1369.03
564.474	1353
567.367	1287.22
570.26	1258.32
573.152	1039.22
576.045	947.231
578.938	748.949
581.83	746.363
584.723	631.777
587.616	896.203
590.509	688.023
593.401	542.512
596.294	432.312
599.187	443.801
602.079	385.66
604.972	285.051
607.865	109.602
610.758	117.816
613.65	69.8633
616.543	24.7539
619.436	16.582
622.328	75.2031
625.221	56.2031
628.114	148.32
631.006	103.215
633.899	162.812
636.792	117.406
639.684	34.8008
642.577	149.543
645.47	125.633
648.363	7.98438
651.255	105.602
654.148	60.4297
657.041	205.359
659.933	323.375
662.826	294.793
665.719	226.887
668.612	209.332
671.504	250.211
674.397	358.996
677.29	362.648
680.182	387.111
683.075	491.172
685.968	585.336
688.861	649.951
691.753	597.641
694.646	500.912
697.539	521.125
700.431	631.381
703.324	646.453
706.217	651.697
709.109	617.842
712.002	610.885
714.895	593.506
717.788	612.914
720.68	586.606
723.573	560.293
726.466	519.668
729.358	531.959
732.251	527.186
735.144	522.252
738.036	518.586
740.929	493.594
743.822	429.928
746.715	410.467
749.607	362.303
752.5	441.812
755.393	372.309
758.285	382.379
761.178	352.967
764.071	355.781
766.963	351.641
769.856	307.141
772.749	276.023
775.642	235.184
778.534	217.324
781.427	238.699
784.32	239.803
787.212	213.734
790.105	196.926
792.998	224.949
795.89	221.35
798.783	254.769
801.676	261.006
804.569	225.658
807.461	225.117
810.354	221
813.247	218.92
816.139	190.852
819.032	247.492
821.925	287.225
824.818	296.584
827.71	397.541
830.603	566.908
833.496	695.207
836.388	766.256
839.281	593.117
842.174	302.836
845.067	90.1738
847.959	16.4121
850.852	0.764648
853.745	6.51172
856.637	23.0449
859.53	65.2627
862.423	35.8086
865.315	0.305664
868.208	6.39941
871.101	16.79
873.994	21.791
876.886	10.7383
879.779	11.4004
882.672	24.0957
885.564	16.3311
888.457	5.19727
891.35	9.32129
894.242	30.5371
897.135	48.1221
900.028	72.1738
902.92	88.3193
905.813	89.7676
908.706	119.664
911.599	82.7744
914.491	85.6045
917.384	61.6103
920.277	85.9102
923.169	56.1699
926.062	95.1943
928.955	88.4336
931.847	71.1426
934.74	86.1357
937.633	60.584
940.526	42.7705
943.418	9.65723
946.311	30.4775
949.204	18.0264
952.096	6.97266
954.989	2.87109
957.882	16.3984
960.775	25.7188
963.667	21.6191
966.56	58.625
969.453	88.8037
972.345	92.0859
975.238	154.226
978.131	218.47
981.024	256.463
983.916	316.897
986.809	422.537
989.702	398.147
992.594	356.024
995.487	298.781
998.38	251.047
1001.27	333.435
1004.16	319.543
1007.06	393.803
1009.95	517.768
1012.84	577.896
1015.74	581.075
1018.63	390.391
1021.52	250.762
1024.41	124.029
1027.31	133.523
1030.2	71.7969
1033.09	36.8935
1035.98	71.2051
1038.88	22.4521
1041.77	24.8447
1044.66	16.6992
1047.56	4.66113
1050.45	26.6514
1053.34	42.5742
1056.23	45.0098
1059.13	35.8184
1062.02	19.6064
1064.91	13.334
1067.81	31.8018
1070.7	87.7207
1073.59	58.456
1076.48	80.0176
1079.38	51.1143
1082.27	67.4522
1085.16	96.0918
1088.05	85.1602
1090.95	50.334
1093.84	58.2432
1096.73	56.417
1099.62	62.335
1102.52	59.2266
1105.41	82.9102
1108.3	70.7734
1111.19	104.816
1114.09	76.374
1116.98	80.4248
1119.87	94.8242
1122.77	151.501
1125.66	92.6455
1128.55	124.373
1131.44	91.4463
1134.34	81.6514
1137.23	75.6367
1140.12	47.6455
1143.02	61.4795
1145.91	113.333
1148.8	53.207
1151.69	29.9502
1154.59	6.0332
1157.48	9.78223
1160.37	29.7402
1163.26	57.96
1166.16	55.0566
1169.05	7.52734
1171.94	27.5332
1174.84	22.9131
1177.73	1.46387
1180.62	6.63477
1183.51	17.7021
1186.4	1.58301
1189.3	19.9307
1192.19	22.874
1195.08	37.4453
1197.98	54.7647
1200.87	54.8594
1203.76	62.748
1206.65	44.126
1209.55	23.3672
1212.44	77.8828
1215.33	119.954
1218.22	93.1543
1221.12	165.864
1224.01	159.352
1226.9	178.774
1229.8	222.022
1232.69	232.459
1235.58	152.804
1238.47	178.373
1241.37	181.597
1244.26	244.988
1247.15	286.135
1250.05	284.342
1252.94	260.893
1255.83	237.336
1258.72	280.115
1261.62	311.107
1264.51	267.289
1267.4	238.928
1270.29	212.787
1273.19	168.91
1276.08	174.844
1278.97	118.397
1281.87	124.453
1284.76	97.8848
1287.65	71.5996
1290.54	59.4609
1293.43	49.9707
1296.33	45.1367
1299.22	55.252
1302.11	0.832031
