Measurement: Raman, 785 nm, unoriented, Raman Data Processed
Mineral: Metahewettite
Rruff sample: R070199
Ideal chemistry: CaV^5+^_6_O_16_3H_2_O
Locality: Fish Creek Range, south of Eureka, Eureka County, Nevada, USA
Source: James Shigley
Description: Red pulverulent coating
Raman shift (cm-1)	intensity
151.201	0
154.093	124.047
156.986	121.821
159.879	77.7756
162.772	69.9438
165.664	83.697
168.557	50.7246
171.45	50.646
174.342	18.5942
177.235	28.0459
180.128	2.73413
183.02	120.673
185.913	239.342
188.806	323.476
191.698	374.444
194.591	429.007
197.484	483.357
200.377	483.703
203.269	506.595
206.162	453.952
209.055	406.377
211.947	354.916
214.84	321.494
217.733	290.417
220.625	217.61
223.518	176.344
226.411	150.706
229.304	107.701
232.196	144.244
235.089	84.6243
237.982	172.36
240.874	173.336
243.767	253.074
246.66	332.318
249.553	408.895
252.445	422.673
255.338	526.715
258.231	578.293
261.123	653.992
264.016	657.79
266.909	651.796
269.801	590.244
272.694	581.428
275.587	623.342
278.479	683.846
281.372	718.088
284.265	761.352
287.158	806.401
290.05	772.544
292.943	757.232
295.836	659.771
298.728	539.958
301.621	475.85
304.514	403.286
307.406	407.652
310.299	398.288
313.192	444.173
316.085	431.373
318.977	451.079
321.87	467.013
324.763	435.104
327.655	391.799
330.548	354.086
333.441	274.616
336.334	209.778
339.226	167.013
342.119	63.3428
345.012	1.14087
347.904	10.6343
350.797	14.9575
353.69	19.9294
356.582	44.5093
359.475	30.7053
362.368	17.4409
365.26	24.8127
368.153	40.8821
371.046	70.4604
373.939	96.6057
376.831	147.609
379.724	142.05
382.617	141.224
385.509	150.047
388.402	140.458
391.295	116.87
394.188	138.5
397.08	63.4795
399.973	26.9355
402.866	52.853
405.758	38.6274
408.651	47.4353
411.544	16.3594
414.436	5.63061
417.329	10.544
420.222	39.9275
423.115	13.7009
426.007	85.2202
428.9	46.9648
431.793	63.6924
434.685	54.2278
437.578	76.7129
440.471	68.9316
443.363	102.276
446.256	96.1728
449.149	104.146
452.041	152.541
454.934	133.114
457.827	167.086
460.72	159.127
463.612	240.416
466.505	225.028
469.398	237.869
472.29	213.802
475.183	192.429
478.076	145.248
480.969	158.227
483.861	121.856
486.754	72.8843
489.647	112.665
492.539	83.0147
495.432	107.374
498.325	55.1099
501.217	48.6187
504.11	31.8926
507.003	41.1035
509.896	70.407
512.788	57.6877
515.681	72.3093
518.574	85.3252
521.466	109.382
524.359	85.2669
527.252	85.7347
530.144	132.882
533.037	126.098
535.93	113.847
538.822	97.9624
541.715	69.4912
544.608	80.7687
547.501	90.1787
550.393	35.5435
553.286	44.7241
556.179	50.2607
559.071	42.208
561.964	13.7117
564.857	24.7462
567.75	24.9669
570.642	4.88367
573.535	8.99487
576.428	11.7294
579.32	30.5301
582.213	13.8649
585.106	18.4498
587.998	5.82397
590.891	20.9382
593.784	11.6301
596.677	11.4335
599.569	7.87744
602.462	29.7207
605.355	12.0839
608.247	10.0566
611.14	9.5238
614.033	9.34351
616.925	39.3523
619.818	12.5345
622.711	34.0429
625.604	29.1532
628.496	17.7667
631.389	6.93433
634.282	37.1926
637.174	22.1003
640.067	13.6711
642.96	27.4851
645.852	47.5714
648.745	30.39
651.638	17.0459
654.53	20.8552
657.423	86.344
660.316	71.4972
663.209	76.5234
666.101	92.7032
668.994	153.238
671.887	144.971
674.779	151.499
677.672	200.254
680.565	183.109
683.457	221.25
686.35	181.666
689.243	189.869
692.136	129.629
695.028	147.014
697.921	113.9
700.814	130.894
703.706	136.867
706.599	119.956
709.492	139.2
712.385	125.331
715.277	172.978
718.17	159.235
721.063	174.668
723.955	189.004
726.848	182.598
729.741	146.453
732.633	127.013
735.526	120.579
738.419	97.7305
741.312	83.8445
744.204	107.391
747.097	66.2003
749.99	58.5878
752.882	50.5327
755.775	93.3238
758.668	94.8495
761.56	58.6545
764.453	102.502
767.346	71.8086
770.239	72.681
773.131	63.3643
776.024	75.8993
778.917	43.4103
781.809	57.2468
784.702	44.3868
787.595	45.141
790.487	27.2354
793.38	33.4867
796.273	43.079
799.165	40.9628
802.058	25.822
804.951	2.00024
807.844	26.9807
810.736	3.69971
813.629	11.6038
816.522	5.81506
819.414	2.04834
822.307	33.9409
825.2	13.078
828.092	8.86792
830.985	40.7649
833.878	44.2161
836.771	19.486
839.663	3.27429
842.556	22.1992
845.449	30.0483
848.341	23.3091
851.234	15.6592
854.127	1.76685
857.019	25.5563
859.912	12.6307
862.805	42.9423
865.698	24.5399
868.59	6.92847
871.483	14.3264
874.376	16.6442
877.268	4.06177
880.161	3.29309
883.054	9.98145
885.947	14.3614
888.839	11.6691
891.732	28.9506
894.625	20.1295
897.517	25.4431
900.41	49.7869
903.303	33.8261
906.195	31.9921
909.088	37.6831
911.981	28.5912
914.874	35.1616
917.766	29.2658
920.659	42.2596
923.552	53.1562
926.444	54.8618
929.337	74.3239
932.23	72.7029
935.122	100.23
938.015	92.9631
940.908	87.1508
943.801	67.1399
946.693	75.6139
949.586	93.9936
952.479	64.3452
955.371	102.243
958.264	100.234
961.157	75.0198
964.049	108.151
966.942	132.124
969.835	130.841
972.727	152.177
975.62	199.398
978.513	197.689
981.406	235.405
984.298	178.837
987.191	186.271
990.084	181.651
992.976	183.707
995.869	165.955
998.762	147.653
1001.65	107.857
1004.55	74.2084
1007.44	38.9734
1010.33	27.4563
1013.23	37.7826
1016.12	36.5501
1019.01	39.3622
1021.9	19.9191
1024.8	12.7516
1027.69	11.1542
1030.58	12.5485
1033.47	15.2996
1036.37	21.545
1039.26	7.09564
1042.15	0.355652
1045.05	9.69061
1047.94	10.6998
1050.83	15.4065
1053.72	34.5819
1056.62	10.2032
1059.51	32.4349
1062.4	17.8855
1065.29	35.1252
1068.19	28.7612
1071.08	19.6889
1073.97	24.108
1076.87	21.5449
1079.76	19.3426
1082.65	7.7392
1085.54	47.2581
1088.43	39.545
1091.33	57.0623
1094.22	21.6089
1097.11	32.3167
1100.01	26.5346
1102.9	36.3638
1105.79	10.6244
1108.68	21.7964
1111.58	43.0881
1114.47	34.7206
1117.36	30.051
1120.26	36.6118
1123.15	38.557
1126.04	25.8874
1128.93	16.5147
1131.83	36.5201
1134.72	32.189
1137.61	26.4391
1140.5	8.64093
1143.4	34.3533
1146.29	27.3112
1149.18	24.8513
1152.08	23.3219
1154.97	0.452759
1157.86	35.4881
1160.75	31.4851
1163.65	19.8621
1166.54	47.228
1169.43	23.0247
1172.32	24.1204
1175.22	14.5765
1178.11	49.1483
1181	54.1729
1183.89	16.434
1186.79	27.4747
1189.68	17.0751
1192.57	28.1187
1195.46	42.1312
1198.36	26.1131
1201.25	20.8818
1204.14	3.2973
1207.04	22.502
1209.93	32.353
1212.82	35.7451
1215.71	4.03955
1218.61	30.1362
1221.5	46.9428
1224.39	50.5755
1227.29	27.0421
1230.18	19.8754
1233.07	20.5835
