Measurement: Raman, 532 nm, unoriented, Raman Data Processed
Mineral: Meta-autunite
Rruff sample: R050612
Ideal chemistry: Ca(U^6+^O_2_)_2_(PO_4_)_2_6H_2_O
Locality: Daybreak mine, Mt. Spokane, Spokane County, Washington, USA
Source: Dave Bunk Minerals
Description: Green thin tabular crystal
Measured chemistry: (Ca_0.85_[box]_0.15_)_Σ=1_(U_1.00_O_2_)_2_(P_1.00_O_4_)_2_·3((H_2_O)_0.90_(H_3_O)^+^_0.10_)
Raman shift (cm-1)	intensity
149.451	0
152.344	6368.19
155.237	13456.1
158.13	14257.2
161.022	15346.5
163.915	18914.9
166.808	21702.6
169.7	21353.2
172.593	21692.9
175.486	21296.3
178.379	21797.5
181.271	20187.1
184.164	20924.7
187.057	19347.5
189.949	18802.4
192.842	18958.2
195.735	18357.3
198.627	18385.9
201.52	14866.4
204.413	9732
207.305	5892.62
210.198	3912.69
213.091	1964.69
215.984	241.812
218.876	745
221.769	10
224.662	171.625
227.554	1684.25
230.447	377.75
233.34	208
236.232	1323.69
239.125	1312.31
242.018	80.9375
244.911	798.875
247.803	2857.81
250.696	3216.62
253.589	3237.12
256.481	3808.75
259.374	3726.12
262.267	3831.12
265.16	7350.44
268.052	8611.44
270.945	9045.88
273.838	10529.3
276.73	11415.2
279.623	13599.8
282.516	13437.4
285.409	14614.9
288.301	15250.9
291.194	14935.2
294.087	12486.8
296.979	10646.4
299.872	10827.3
302.765	11848.2
305.657	13497.6
308.55	13171.9
311.443	13458.2
314.336	14767.9
317.228	16072.2
320.121	16327.9
323.014	16960.4
325.906	16977
328.799	17552.6
331.692	19571.1
334.584	19692.1
337.477	18268.6
340.37	16248.1
343.263	15436.7
346.155	15090.2
349.048	15670.7
351.941	14200.8
354.833	14496.8
357.726	16408.9
360.619	16683.4
363.512	15577.1
366.404	11479.8
369.297	9310.56
372.19	6698.44
375.082	5534.94
377.975	5924.44
380.868	5352.44
383.76	5516.69
386.653	5760.12
389.546	4712.31
392.438	2337.06
395.331	1322.56
398.224	1781.31
401.117	423.125
404.009	708.75
406.902	167
409.795	3159.88
412.688	4758.62
415.58	2594.5
418.473	1535.5
421.366	91.5
424.258	260.5
427.151	932.875
430.044	686.125
432.936	1065.25
435.829	2.125
438.722	160.625
441.615	3397.75
444.507	6360
447.4	7410.75
450.293	8255.62
453.185	10593.2
456.078	12631.9
458.971	12814.9
461.863	12387.4
464.756	17070.8
467.649	19833.9
470.541	24616
473.434	25742.1
476.327	26457.8
479.22	28898.9
482.112	30241.4
485.005	32801.6
487.898	32677.1
490.791	35385.5
493.683	37285.9
496.576	41925
499.469	45937.9
502.361	47904.8
505.254	50814
508.147	50917.1
511.039	50858.8
513.932	51653.1
516.825	53002.2
519.717	53197.4
522.61	54596
525.503	54517.8
528.396	52645.3
531.288	51245.9
534.181	49335.8
537.074	48839.2
539.966	51385.2
542.859	53307.4
545.752	51792.8
548.644	47556.1
551.537	42365.2
554.43	37749.1
557.323	34642.2
560.215	34700.8
563.108	32013.6
566.001	31481.8
568.894	30092.8
571.786	30018.5
574.679	26344.9
577.572	22493.5
580.464	21560.5
583.357	22094
586.25	19291
589.142	18266.6
592.035	17408.5
594.928	15501
597.821	11300.6
600.713	10900
603.606	10100.1
606.499	8531.38
609.391	5385.5
612.284	4499.38
615.177	3652.25
618.069	4161.62
620.962	2236.5
623.855	2800.12
626.748	3951.62
629.64	379.875
632.533	3180.5
635.426	3668.38
638.318	1672.62
641.211	124.125
644.104	2255.25
646.996	2144.62
649.889	221.375
652.782	424.625
655.675	630.625
658.567	2794.62
661.46	1932.56
664.353	834.375
667.245	922.562
670.138	905.75
673.031	1215.75
675.923	487.188
678.816	429.125
681.709	2269.31
684.602	2920.31
687.494	1632.19
690.387	3615.25
693.28	3171.94
696.172	3641.68
699.065	4512.23
701.958	5425.38
704.851	8033.62
707.743	7872.56
710.636	7521.75
713.529	8114.25
716.421	8825.81
719.314	8589.25
722.207	8723
725.1	8782.12
727.992	10121.9
730.885	9850.88
733.778	8020.56
736.67	8064.44
739.563	8539.44
742.456	8384.69
745.348	9757.31
748.241	9242.06
751.134	8491.81
754.027	8313.25
756.919	8660.94
759.812	6874.75
762.705	6145
765.597	6001.12
768.49	7181.69
771.383	7745.19
774.275	7047.38
777.168	5281.56
780.061	5520.5
782.954	4968.62
785.846	5007.44
788.739	4473.56
791.632	5800.06
794.524	5354.25
797.417	5596
800.31	5938.62
803.202	7424.44
806.095	9630.44
808.988	11881.1
811.881	13419.8
814.773	17146.8
817.666	22148.4
820.559	30065.9
823.451	39995.1
826.344	52321.6
829.237	63832.2
832.13	64165.4
835.022	42698.1
837.915	19098.9
840.808	9975.75
843.7	6307.94
846.593	3878.25
849.486	2195.22
852.378	963.969
855.271	134.656
858.164	366.469
861.057	679.375
863.949	566.5
866.842	191.156
869.735	1223.59
872.627	635.125
875.52	751.844
878.413	206.781
881.306	455.219
884.198	886.656
887.091	529.906
889.984	1883.91
892.876	2388.06
895.769	3254.09
898.662	2956.28
901.554	2801.5
904.447	2405.34
907.34	2469.56
910.232	3415.31
913.125	3472.53
916.018	2732.06
918.911	2247.12
921.803	141.719
924.696	297.281
927.589	38.5312
930.481	1236.66
933.374	874.281
936.267	722.344
939.159	1032.31
942.052	140.344
944.945	528.156
947.838	596.031
950.73	681.75
953.623	93.7188
956.516	826.719
959.409	551.438
962.301	1056.41
965.194	777.25
968.087	1139.97
970.979	2243.06
973.872	4809.44
976.765	7708.03
979.657	11501
982.55	13503.2
985.443	15584.2
988.336	13523.2
991.228	11010.2
994.121	9609.62
997.014	9903.81
999.906	13043.5
1002.8	16320.2
1005.69	20358.9
1008.58	21414.1
1011.48	21405.8
1014.37	18921.5
1017.26	15476.7
1020.15	11487.1
1023.05	7657.25
1025.94	4637.22
1028.83	4164.62
1031.73	2652.53
1034.62	2225.47
1037.51	885.156
1040.4	56.5625
1043.3	185.906
1046.19	288.375
1049.08	472.938
1051.97	646.75
1054.87	638.5
1057.76	359.75
1060.65	168.969
1063.55	862.344
1066.44	533.656
1069.33	756.875
1072.22	1066.34
1075.12	1922.75
1078.01	2445.38
1080.9	2732.47
1083.8	2594.41
1086.69	2276.06
1089.58	1493.16
1092.47	2200.72
1095.37	1326.28
1098.26	2323.78
1101.15	3226.47
1104.04	2577.28
1106.94	2368.72
1109.83	1183.03
1112.72	1967.66
1115.62	2078.72
1118.51	2126.97
1121.4	2238.47
1124.29	1733.66
1127.18	2098.97
1130.08	1399.31
1132.97	1981.91
1135.86	2082.88
1138.76	2104.38
1141.65	1833.75
1144.54	1623.19
1147.43	2106.97
1150.33	1111.09
1153.22	1683.22
1156.11	1765.62
1159.01	1581.38
1161.9	567.438
1164.79	304.906
1167.68	517.656
1170.58	844.531
1173.47	1140.97
1176.36	808.219
1179.25	1083.25
1182.15	834.938
1185.04	700.469
1187.93	707.375
1190.83	31.125
1193.72	251.188
1196.61	269.844
1199.5	193.5
1202.4	405.219
1205.29	203.125
1208.18	133.625
1211.07	498.938
1213.97	660.875
1216.86	592.875
1219.75	795.688
1222.64	396.969
1225.54	583.25
1228.43	224.375
1231.32	908.125
1234.21	426.656
1237.11	263.375
1240	288.625
1242.89	406.531
1245.79	1087.62
1248.68	1771.47
1251.57	2938.94
1254.46	2893.34
1257.36	2825.78
1260.25	2425.38
1263.14	2405.56
1266.04	2427.75
1268.93	3981.88
1271.82	3046.44
1274.71	2442
1277.61	2696.78
1280.5	1997.5
1283.39	1907.25
1286.28	1838.03
1289.18	1283.5
1292.07	1225.44
1294.96	50.7812
1297.86	127.344
1300.75	252.094
