Measurement: Raman, 785 nm, unoriented, Raman Data Processed
Mineral: Miassite
Rruff sample: R070075
Ideal chemistry: Rh_17_S_15_
Locality: Yukhtochka placer, Tributary of Aldan River, Yakutia, Russia
Source: Michael Scott
Description: A mechanical mixture of dark gray metallic polished grains and pale yellow vanadinite embedded in epoxy
Measured chemistry: (Rh_11.58_Cu_1.47_Ru_1.76_Fe_1.35_Pt_0.35_Ir_0.25_Ni_0.19_Os_0.05_)_Î£=17_S_15.00_
Raman shift (cm-1)	intensity
153.13	0
156.023	254.594
158.915	507.537
161.808	589.364
164.701	331.641
167.593	183.377
170.486	163.642
173.379	91.9988
176.271	9.3894
179.164	9.12769
182.057	117.539
184.949	76.0206
187.842	57.4937
190.735	63.2524
193.627	94.5171
196.52	96.9205
199.413	12.4182
202.306	32.0903
205.198	20.3979
208.091	11.1405
210.984	38.2406
213.876	52.6758
216.769	148.274
219.662	200.882
222.555	216.242
225.447	215.089
228.34	222.766
231.233	246.305
234.125	246.65
237.018	217.974
239.911	212.404
242.804	234.183
245.696	267.472
248.589	283.914
251.482	290.683
254.374	290.745
257.267	286.79
260.16	268.994
263.052	233.572
265.945	234.437
268.838	227.138
271.731	186.942
274.623	166.435
277.516	160.782
280.409	141.268
283.301	130.423
286.194	108.583
289.087	120.886
291.979	113.659
294.872	108.903
297.765	107.429
300.658	137.728
303.55	131.699
306.443	110.522
309.336	113.598
312.228	89.527
315.121	64.9114
318.014	50.4427
320.906	66.3798
323.799	42.3115
326.692	60.065
329.584	49.5573
332.477	66.8677
335.37	73.7733
338.262	74.8379
341.155	61.415
344.048	66.0912
346.941	47.2383
349.833	35.0555
352.726	36.5509
355.619	1.74689
358.511	3.76947
361.404	9.01019
364.297	5.04178
367.19	10.7949
370.082	8.72003
372.975	26.3802
375.868	40.3597
378.76	19.6471
381.653	24.6043
384.546	3.18106
387.438	31.4894
390.331	12.8861
393.224	7.87726
396.116	9.10495
399.009	3.27872
401.902	13.4305
404.795	0.543671
407.687	11.8246
410.58	1.90878
413.473	38.6585
416.365	23.6366
419.258	20.005
422.151	15.704
425.043	6.66003
427.936	2.90006
430.829	8.46175
433.722	3.40349
436.614	1.83229
439.507	20.5249
442.4	8.20996
445.292	18.379
448.185	0.450348
451.078	14.1623
453.971	29.7554
456.863	28.6565
459.756	36.0366
462.649	19.7519
465.541	26.7944
468.434	8.54539
471.327	2.06134
474.219	30.0815
477.112	18.2864
480.005	17.9111
482.898	8.74097
485.79	6.96152
488.683	29.0041
491.576	38.3464
494.468	19.0086
497.361	39.0294
500.254	11.7675
503.147	29.6375
506.039	3.91061
508.932	10.7618
511.825	3.95094
514.717	11.9661
517.61	33.8811
520.503	29.9777
523.395	18.2342
526.288	7.43169
529.181	19.5591
532.073	13.5771
534.966	19.6305
537.859	21.3827
540.752	19.3763
543.644	20.528
546.537	25.0852
549.43	27.2958
552.322	22.1259
555.215	28.5802
558.108	15.1147
561	21.4405
563.893	30.1338
566.786	25.2756
569.678	27.7067
572.571	5.88011
575.464	14.6393
578.357	29.6589
581.249	22.4897
584.142	4.53711
587.035	12.7441
589.927	20.2713
592.82	9.21603
595.713	27.557
598.606	18.3281
601.498	38.6841
604.391	16.9178
607.284	24.2026
610.176	26.145
613.069	0.215622
615.962	0.268356
618.854	23.5905
621.747	5.50059
624.64	21.9216
627.533	21.5275
630.425	23.7066
633.318	8.36823
636.211	13.8514
639.103	19.05
641.996	35.4139
644.889	12.199
647.781	12.3236
650.674	12.4673
653.567	15.846
656.46	25.274
659.352	26.3021
662.245	15.3971
665.138	2.65764
668.03	5.67983
670.923	15.3342
673.816	13.2596
676.708	33.0848
679.601	12.753
682.494	29.2137
685.386	1.69955
688.279	2.13721
691.172	5.2368
694.065	13.4245
696.957	17.1316
699.85	6.7558
702.743	14.4327
705.635	17.7064
708.528	23.0033
711.421	21.0021
714.313	10.5844
717.206	11.7942
720.099	4.07317
722.992	15.7742
725.884	11.7658
728.777	23.3003
731.67	14.3867
734.562	14.7422
737.455	9.59827
740.348	15.5603
743.24	24.6164
746.133	32.4899
749.026	23.1654
751.919	12.4219
754.811	8.21538
757.704	6.57606
760.597	13.4838
763.489	25.9288
766.382	19.4879
769.275	9.51878
772.168	20.4078
775.06	21.1529
777.953	11.541
780.846	14.5883
783.738	7.87622
786.631	2.1161
789.524	12.3178
792.416	12.0872
795.309	23.0476
798.202	9.52202
801.095	2.03955
803.987	13.4043
806.88	11.9039
809.773	15.6995
812.665	20.3278
815.558	10.7675
818.451	34.1415
821.343	15.8581
824.236	5.16028
827.129	5.19327
830.021	0.803833
832.914	11.6653
835.807	16.863
838.7	25.5144
841.592	23.8452
844.485	15.7236
847.378	25.6629
850.27	27.4765
853.163	33.7436
856.056	16.7796
858.948	23.6225
861.841	10.7135
864.734	24.5584
867.627	19.8095
870.519	0.899445
873.412	15.7936
876.305	17.9115
879.197	1.94205
882.09	17.3826
884.983	8.21936
887.875	15.2882
890.768	6.22804
893.661	10.5939
896.554	43.3491
899.446	10.3884
902.339	19.6562
905.232	16.2598
908.125	15.7413
911.017	20.2631
913.91	26.7914
916.803	22.3035
919.695	9.34325
922.588	29.771
925.481	0.928085
928.373	12.6802
931.266	11.765
934.159	20.497
937.052	9.84567
939.944	18.4476
942.837	3.00255
945.73	33.3913
948.622	11.9427
951.515	23.5326
954.408	19.3734
957.3	25.2086
960.193	37.2633
963.086	30.3401
965.979	22.2979
968.871	10.7831
971.764	18.6071
974.657	9.38461
977.549	0.202667
980.442	11.5816
983.335	25.0895
986.227	22.9806
989.12	8.61038
992.013	21.87
994.905	3.85817
997.798	22.5483
1000.69	6.7316
1003.58	6.24472
1006.48	11.0555
1009.37	23.914
1012.26	43.3436
1015.15	25.7654
1018.05	6.74144
1020.94	27.679
1023.83	19.922
1026.72	15.3617
1029.62	17.8181
1032.51	16.4257
1035.4	28.1939
1038.3	9.5103
1041.19	25.0566
1044.08	28.5226
1046.97	13.2759
1049.87	31.4909
1052.76	35.563
1055.65	14.8971
1058.55	33.1605
1061.44	6.87212
1064.33	4.75304
1067.22	16.6708
1070.12	9.11511
1073.01	9.86703
1075.9	20.5903
1078.79	11.4305
1081.69	11.8843
1084.58	17.1402
1087.47	17.9304
1090.37	45.6677
1093.26	20.2307
1096.15	23.127
1099.04	14.4236
1101.93	29.1386
1104.83	29.2688
1107.72	7.97995
1110.61	1.44531
1113.51	21.7928
1116.4	9.08221
1119.29	30.8158
1122.18	19.2349
1125.08	16.6621
1127.97	16.7931
1130.86	7.2063
1133.76	27.7836
1136.65	18.1782
1139.54	21.725
1142.43	37.7319
1145.33	15.4923
1148.22	26.7136
1151.11	16.905
1154	43.3058
1156.9	48.9339
1159.79	31.147
1162.68	38.4709
1165.58	11.0979
1168.47	27.1051
1171.36	9.29962
1174.25	27.5485
1177.15	24.9563
1180.04	16.3973
1182.93	7.17523
1185.82	18.0003
1188.72	14.2582
1191.61	11.9826
1194.5	30.1437
1197.39	42.9625
1200.29	9.1665
1203.18	29.478
1206.07	19.7767
1208.96	39.0111
1211.86	23.2481
1214.75	15.1666
1217.64	10.2263
1220.54	5.86258
1223.43	11.0452
1226.32	13.9999
1229.21	24.407
1232.11	3.465
1235	2.56454
