Measurement: Raman, 532 nm, unoriented, Raman Data Processed
Mineral: Miassite
Rruff sample: R070075
Ideal chemistry: Rh_17_S_15_
Locality: Yukhtochka placer, Tributary of Aldan River, Yakutia, Russia
Source: Michael Scott
Description: A mechanical mixture of dark gray metallic polished grains and pale yellow vanadinite embedded in epoxy
Measured chemistry: (Rh_11.58_Cu_1.47_Ru_1.76_Fe_1.35_Pt_0.35_Ir_0.25_Ni_0.19_Os_0.05_)_Î£=17_S_15.00_
Raman shift (cm-1)	intensity
134.271	0
137.646	13.4572
141.02	21.8642
144.395	19.0762
147.77	59.6547
151.145	26.0503
154.52	58.4604
157.894	16.7595
161.269	33.9213
164.644	61.9482
168.019	32.269
171.394	75.2991
174.769	74.3101
178.143	43.7087
181.518	28.4846
184.893	33.5731
188.268	44.3413
191.643	41.6957
195.018	39.8104
198.392	47.5504
201.767	34.63
205.142	37.2582
208.517	14.932
211.892	41.7664
215.266	15.5808
218.641	23.4842
222.016	20.0618
225.391	21.5835
228.766	7.07898
232.141	28.2654
235.515	1.61261
238.89	9.89667
242.265	22.3452
245.64	27.4313
249.015	22.2388
252.389	4.53827
255.764	15.3381
259.139	17.6047
262.514	30.5447
265.889	48.3752
269.264	45.0747
272.638	29.3576
276.013	34.6166
279.388	0.211853
282.763	6.6029
286.138	24.7217
289.512	9.8537
292.887	38.6496
296.262	20.0656
299.637	33.5282
303.012	30.064
306.387	41.0068
309.761	28.5042
313.136	34.9718
316.511	32.598
319.886	37.6214
323.261	0.434875
326.635	21.7743
330.01	50.2769
333.385	9.78863
336.76	21.1158
340.135	19.8511
343.51	29.6135
346.884	13.9674
350.259	33.6341
353.634	10.7223
357.009	0.609009
360.384	8.30316
363.758	11.9621
367.133	9.07355
370.508	47.8167
373.883	7.35992
377.258	31.6495
380.632	3.72272
384.007	19.079
387.382	11.8169
390.757	35.7352
394.132	10.3334
397.507	4.15729
400.881	35.4232
404.256	29.9928
407.631	16.6235
411.006	2.7522
414.381	37.8567
417.755	3.1275
421.13	0.656372
424.505	23.0837
427.88	39.2203
431.255	1.71497
434.63	32.4067
438.004	42.3391
441.379	9.96887
444.754	17.649
448.129	2.12878
451.504	4.93591
454.878	26.5385
458.253	16.3365
461.628	15.4142
465.003	24.3666
468.378	26.1659
471.753	5.87378
475.127	9.07532
478.502	23.8929
481.877	33.4353
485.252	35.3223
488.627	24.9467
492.002	15.0988
495.376	6.39905
498.751	31.2122
502.126	22.1392
505.501	29.4359
508.876	25.0456
512.25	41.6915
515.625	24.3662
519	9.15039
522.375	21.0386
525.75	36.688
529.125	30.4435
532.499	15.2228
535.874	5.26208
539.249	6.72229
542.624	30.7313
545.999	1.84998
549.373	64.2705
552.748	44.6456
556.123	46.0443
559.498	24.0985
562.873	56.0215
566.247	36.6487
569.622	55.1574
572.997	5.4176
576.372	10.7754
579.747	15.2942
583.122	12.6291
586.496	31.516
589.871	19.2581
593.246	52.2094
596.621	42.0463
599.996	36.0492
603.37	40.6229
606.745	15.4353
610.12	30.4509
613.495	17.9596
616.87	20.5029
620.245	12.1416
623.619	15.8555
626.994	19.6873
630.369	13.0645
633.744	22.4337
637.119	46.9524
640.494	27.1378
643.868	7.21448
647.243	3.98706
650.618	43.5941
653.993	36.9819
657.368	23.8302
660.742	17.5719
664.117	4.07861
667.492	0.15686
670.867	32.9818
674.242	34.8868
677.616	14.5988
680.991	55.7172
684.366	40.9303
687.741	7.21924
691.116	2.1095
694.491	28.2352
697.865	26.7883
701.24	16.8779
704.615	30.6299
707.99	4.94116
711.365	9.30786
714.74	22.1095
718.114	42.8362
721.489	22.0942
724.864	15.503
728.239	3.94116
731.614	48.5743
734.988	3.72083
738.363	27.6145
741.738	13.0146
745.113	11.0655
748.488	26.5263
751.862	23.9019
755.237	13.4067
758.612	15.9089
761.987	1.19934
765.362	36.2822
768.737	3.36536
772.111	21.6612
775.486	28.3137
778.861	29.6086
782.236	53.6654
785.611	3.85693
788.986	34.8386
792.36	16.3763
795.735	16.9043
799.11	42.0593
802.485	41.5303
805.86	15.9111
809.234	27.1209
812.609	41.0599
815.984	2.297
819.359	20.6442
822.734	19.8621
826.109	16.2042
829.483	24.8074
832.858	27.8889
836.233	1.75842
839.608	67.9238
842.983	13.7425
846.357	19.3276
849.732	27.0928
853.107	32.029
856.482	18.3114
859.857	23.556
863.231	1.67407
866.606	19.3959
869.981	56.5754
873.356	28.322
876.731	13.7775
880.106	6.64002
883.481	22.7548
886.855	18.5497
890.23	5.88342
893.605	37.6304
896.98	2.96301
900.355	50.2029
903.729	37.7891
907.104	50.2675
910.479	16.7689
913.854	50.6991
917.229	10.6739
920.604	28.8856
923.978	29.4123
927.353	0.409424
930.728	23.0789
934.103	48.7253
937.477	17.6333
940.852	1.11023
944.227	56.7179
947.602	4.78955
950.977	55.3468
954.352	42.968
957.726	39.1352
961.101	17.4166
964.476	17.7253
967.851	5.57812
971.226	29.2068
974.601	36.1648
977.975	48.599
981.35	37.1068
984.725	28.4081
988.1	4.99292
991.475	39.6998
994.849	36.1295
998.224	29.208
1001.6	38.1521
1004.97	4.20923
1008.35	34.3463
1011.72	25.6117
1015.1	30.3522
1018.47	48.1218
1021.85	55.8138
1025.22	48.5511
1028.6	34.1624
1031.97	41.4526
1035.35	68.4883
1038.72	44.4271
1042.1	26.5745
1045.47	55.397
1048.85	45.827
1052.22	26.9574
1055.6	45.6908
1058.97	31.0956
1062.35	57.9266
1065.72	7.2323
1069.1	14.7026
1072.47	29.92
1075.85	25.923
1079.22	43.0869
1082.6	5.98035
1085.97	53.8898
1089.34	60.806
1092.72	39.5155
1096.09	16.0173
1099.47	53.6333
1102.84	35.6694
1106.22	59.0646
1109.59	33.0837
1112.97	61.6648
1116.34	35.227
1119.72	51.2782
1123.09	27.0184
1126.47	24.8646
1129.84	3.8999
1133.22	5.96167
1136.59	44.3293
1139.97	1.5061
1143.34	6.24255
1146.72	25.337
1150.09	29.1433
1153.47	38.0735
1156.84	0.834351
1160.22	3.69202
1163.59	7.41589
1166.96	21.8286
1170.34	27.2898
1173.71	31.9105
1177.09	37.7606
1180.46	13.4994
1183.84	14.1249
1187.21	6.19238
1190.59	17.7436
1193.96	32.0751
1197.34	22.2953
1200.71	16.9552
1204.09	15.6484
1207.46	19.1161
1210.84	39.9821
1214.21	8.36499
1217.59	33.8757
1220.96	20.6368
1224.34	68.1903
1227.71	24.215
1231.09	31.5006
1234.46	22.7955
1237.84	40.667
1241.21	60.1548
1244.59	11.2026
1247.96	20.1943
1251.34	47.489
1254.71	11.8766
1258.09	42.8407
1261.46	56.8986
1264.84	34.8508
1268.21	16.9401
1271.59	26.4855
1274.96	43.6781
1278.33	23.5151
1281.71	31.141
1285.08	34.5787
1288.46	49.2252
1291.83	21.3773
1295.21	6.49585
1298.58	33.6221
1301.96	37.0315
1305.33	18.6838
1308.71	6.59631
1312.08	4.39856
