Measurement: Raman, 780 nm, unoriented, Raman Data Processed
Mineral: Microcline
Rruff sample: R050150
Ideal chemistry: KAlSi_3_O_8_
Locality: Crystal Peak area, Park/Teller Counties, Colorado, USA
Source: Dave Bunk Minerals
Description: Pale blue prismatic crystals
Measured chemistry: (K_0.95_Na_0.05_)_Î£=1_Al_1.00_Si_3.00_O_8_
Raman shift (cm-1)	intensity
166.266	0
169.159	18.8584
172.052	25.1045
174.945	53.1875
177.837	52.1006
180.73	66.5693
183.623	64.1758
186.515	55.8174
189.408	69.4512
192.301	56.291
195.193	100.39
198.086	161.339
200.979	91.29
203.871	87.3848
206.764	76.6846
209.657	62.6377
212.55	55.29
215.442	35.833
218.335	4.2334
221.228	6.08984
224.12	3.23535
227.013	21.8467
229.906	10.3008
232.798	0.055664
235.691	53.0596
238.584	39.9473
241.477	71.8711
244.369	77.8887
247.262	110.958
250.155	156.5
253.047	178.318
255.94	234.12
258.833	233.765
261.726	254.848
264.618	283.412
267.511	273.158
270.404	263.16
273.296	260.096
276.189	326.389
279.082	379.404
281.974	399.82
284.867	418.909
287.76	332.563
290.652	201.075
293.545	116.892
296.438	91.0459
299.331	71.959
302.223	5.32031
305.116	0.088867
308.009	4.6582
310.901	50.8623
313.794	27.1953
316.687	62.3691
319.579	36.457
322.472	51.6006
325.365	46.8574
328.258	87.7627
331.15	79.2637
334.043	69.0264
336.936	78.7041
339.828	51.2705
342.721	61.5527
345.614	72.1191
348.507	86.9199
351.399	119.568
354.292	93.9922
357.185	100.588
360.077	120.617
362.97	110.562
365.863	99.8848
368.755	99.5801
371.648	106.176
374.541	51.5723
377.433	53.2285
380.326	8.51172
383.219	19.9785
386.112	9.7168
389.004	0.195313
391.897	13.5449
394.79	6.08008
397.682	23.2969
400.575	48.2598
403.468	12.5645
406.361	19.6016
409.253	10.9219
412.146	30.3164
415.039	38.6523
417.931	31.7891
420.824	21.0527
423.717	7.0332
426.609	22.7051
429.502	53.0781
432.395	39.2031
435.288	146.57
438.18	97.6269
441.073	169.383
443.966	86.3672
446.858	94.6699
449.751	109.535
452.644	164.773
455.536	137.703
458.429	151.426
461.322	114.754
464.214	136.25
467.107	151.637
470	207.334
472.893	241.287
475.785	220.897
478.678	127.375
481.571	97.8555
484.463	116.312
487.356	27.0645
490.249	74.6621
493.142	104.916
496.034	224.211
498.927	252.455
501.82	339.428
504.712	434.947
507.605	494.555
510.498	566.367
513.39	504.389
516.283	327.539
519.176	169.584
522.068	116.945
524.961	105.717
527.854	88
530.747	124.027
533.639	52.1055
536.532	60.2832
539.425	10.7949
542.317	45.8535
545.21	4.30664
548.103	21.4531
550.995	0.558594
553.888	21.9785
556.781	72.3262
559.674	114.186
562.566	61.7559
565.459	65.3672
568.352	80.7871
571.244	117.426
574.137	112.728
577.03	124.861
579.923	107.732
582.815	92.6797
585.708	97.832
588.601	102.406
591.493	118.527
594.386	142.695
597.279	94.7227
600.171	137.434
603.064	64.1484
605.957	72.5039
608.849	74.0156
611.742	143.914
614.635	84.0391
617.528	98.4492
620.42	77.1914
623.313	60.5508
626.206	168.606
629.098	179.227
631.991	200.519
634.884	170.207
637.776	192.758
640.669	189.848
643.562	171.699
646.455	143.754
649.347	133.391
652.24	125.898
655.133	88.3242
658.025	24.4609
660.918	180.723
663.811	72.8867
666.703	33.4062
669.596	117.672
672.489	3.14844
675.381	58.0977
678.274	81.1445
681.167	24.8438
684.06	84.7344
686.952	6.77734
689.845	60.2461
692.738	50.2812
695.63	154.312
698.523	129.922
701.416	68.0391
704.308	82.957
707.201	63.2617
710.094	203.941
712.987	101.168
715.879	123.012
718.772	52.0547
721.665	196.973
724.557	193.027
727.45	79.8086
730.343	75.6211
733.236	80.2109
736.128	75.5
739.021	98.2773
741.914	85.9023
744.806	66.2344
747.699	127.93
750.592	194.238
753.484	45.4141
756.377	1.66406
759.27	34.2656
762.163	30.8945
765.055	47.2891
767.948	10.1211
770.841	42.6758
773.733	45.5547
776.626	23.4219
779.519	47.9062
782.411	157.098
785.304	127.387
788.197	204.691
791.09	135.43
793.982	108.473
796.875	148.484
799.768	113.66
802.66	49.4805
805.553	6.98828
808.446	304
811.338	254.812
814.231	129.508
817.124	52.1484
820.016	70.3438
822.909	48.5078
825.802	219.637
828.695	183.055
831.587	205.945
834.48	377.117
837.373	294.168
840.265	289.992
843.158	364.875
846.051	340.707
848.943	429.914
851.836	292.758
854.729	321.742
857.622	292.852
860.514	308.859
863.407	190.07
866.3	237.141
869.192	203.102
872.085	109.258
874.978	81.5469
877.87	90.9297
880.763	84.6641
883.656	10.8516
886.549	89.4766
889.441	82.6328
892.334	129.336
895.227	86.0781
898.119	44.8516
901.012	74.2812
903.905	81.6641
906.798	54.3984
909.69	241.977
912.583	187.219
915.476	286.977
918.368	250.305
921.261	271.539
924.154	353.773
927.046	267.773
929.939	338.164
932.832	373.977
935.725	245.797
938.617	256.492
941.51	291.453
944.403	267.234
947.295	225.633
950.188	179.188
953.081	131.18
955.973	66.6641
958.866	220.094
961.759	176.336
964.652	138.469
967.544	209.609
970.437	95.5938
973.33	26.0234
976.222	97.3125
979.115	57.1719
982.008	9.32812
984.9	114.211
987.793	222.508
990.686	391.359
993.578	256.047
996.471	278.383
999.364	267.57
1002.26	329.992
1005.15	302.602
1008.04	317.039
1010.93	321.812
1013.83	289.812
1016.72	337.133
1019.61	301.703
1022.5	172.984
1025.4	10.5391
1028.29	151.102
1031.18	335.227
1034.08	225.891
1036.97	461.359
1039.86	369.883
1042.75	261.922
1045.65	340.133
1048.54	289.43
1051.43	420.781
1054.33	375.109
1057.22	457.516
1060.11	413.125
1063	479.875
1065.9	463.125
1068.79	504.344
1071.68	350.039
1074.57	330.938
1077.47	441.609
1080.36	268.039
1083.25	431.594
1086.14	391.656
1089.04	329.484
1091.93	290.984
1094.82	229.766
1097.72	114.477
1100.61	41.8984
1103.5	46.9297
1106.39	31.2891
1109.29	115.766
1112.18	0.695313
1115.07	18.7891
1117.96	82.6484
1120.86	66.5859
1123.75	53.8828
1126.64	37.6719
1129.54	2.53906
1132.43	116.484
1135.32	352.711
1138.21	353.914
1141.11	399.797
1144	425.109
1146.89	261.883
1149.78	265
1152.68	344.844
1155.57	480.367
1158.46	712.164
1161.36	937.125
1164.25	880.219
1167.14	973
1170.03	813.883
1172.93	764.023
1175.82	950.805
1178.71	778.438
1181.6	1009.55
1184.5	898.633
1187.39	1046.48
1190.28	942.891
1193.17	1106.1
1196.07	1095.41
1198.96	1118.56
1201.85	679.117
1204.75	859.703
1207.64	996.32
1210.53	737.609
1213.42	807.047
1216.32	611.836
1219.21	585.68
1222.1	407.977
1224.99	369.227
1227.89	507.297
1230.78	395.68
1233.67	283.203
1236.57	152.438
1239.46	237.477
1242.35	200.492
1245.24	253.234
1248.14	466.602
1251.03	268.586
1253.92	152.711
1256.81	27.0469
1259.71	5.72656
1262.6	13.1328
1265.49	307.352
1268.38	224.656
1271.28	346.039
1274.17	309.914
1277.06	173.703
1279.96	326.086
1282.85	15.0312
1285.74	62.8281
