Measurement: Raman, 785 nm, unoriented, Raman Data Processed
Mineral: Microlite
Rruff sample: R070058
Ideal chemistry: (Ca,Na)_2_Ta_2_(O,OH,F)_7_
Locality: Kyoktogai pegmatite field, Altai, Xinjinag Province, China
Source: Michael Scott
Description: Bluish-green fragments embedded in epoxy, co-type material. Originally labeled as 'natrobistantite', a discredited species.
Raman shift (cm-1)	intensity
183.503	0
186.396	90.5775
189.288	37.1221
192.181	65.7981
195.074	132.142
197.967	178.107
200.859	221.276
203.752	137.403
206.645	163.651
209.537	145.372
212.43	146.534
215.323	220.097
218.215	260.772
221.108	350.356
224.001	423.971
226.894	181.05
229.786	164.879
232.679	162.115
235.572	215.884
238.464	234.988
241.357	267.566
244.25	340.504
247.143	225.424
250.035	143.316
252.928	121.869
255.821	242.166
258.713	209.289
261.606	273.057
264.499	212.082
267.391	138.439
270.284	68.2015
273.177	175.046
276.07	91.7272
278.962	67.1063
281.855	228.486
284.748	173.252
287.64	253.909
290.533	137.615
293.426	95.8504
296.318	30.5049
299.211	25.0066
302.104	112.722
304.997	167.781
307.889	135.568
310.782	73.5625
313.675	52.5123
316.567	66.6647
319.46	4.86548
322.353	16.866
325.245	87.563
328.138	184.446
331.031	5.32739
333.923	104.954
336.816	33.1662
339.709	12.9133
342.602	42.0616
345.494	109.919
348.387	162.289
351.28	99.8554
354.172	217.989
357.065	60.4453
359.958	88.4064
362.851	2.13526
365.743	72.7232
368.636	59.8752
371.529	139.7
374.421	188.367
377.314	122.24
380.207	96.0943
383.099	50.8021
385.992	10.6916
388.885	88.0361
391.777	7.18937
394.67	112.298
397.563	152.811
400.456	170.852
403.348	130.46
406.241	86.401
409.134	13.269
412.026	31.8859
414.919	75.2449
417.812	209.778
420.704	108.232
423.597	114.757
426.49	146.555
429.383	65.0502
432.275	72.4233
435.168	13.6757
438.061	166.259
440.953	153.466
443.846	167.083
446.739	129.543
449.632	23.3789
452.524	157.373
455.417	24.4242
458.31	78.3198
461.202	21.7075
464.095	122.273
466.988	201.222
469.88	139.125
472.773	39.0644
475.666	138.982
478.558	27.5847
481.451	19.344
484.344	185.621
487.237	110.48
490.129	198.04
493.022	143.284
495.915	159.939
498.807	43.2143
501.7	80.8092
504.593	135.63
507.486	160.912
510.378	134.651
513.271	179.902
516.164	48.8048
519.056	151.624
521.949	152.464
524.842	21.2958
527.734	99.8787
530.627	61.0823
533.52	49.6865
536.413	90.0214
539.305	61.7133
542.198	6.50434
545.091	137.656
547.983	14.8618
550.876	0.788109
553.769	172.554
556.661	114.289
559.554	181.43
562.447	164.911
565.34	121.979
568.232	125.935
571.125	146.737
574.018	118.691
576.91	139.615
579.803	36.5115
582.696	162.751
585.588	24.4814
588.481	82.1467
591.374	127.63
594.266	24.578
597.159	146.824
600.052	96.7491
602.945	8.403
605.837	101.896
608.73	49.6142
611.623	6.77078
614.515	79.688
617.408	42.3159
620.301	109.385
623.193	98.1843
626.086	187.844
628.979	147.731
631.872	41.1025
634.764	64.2769
637.657	118.939
640.55	31.122
643.442	71.8933
646.335	97.8596
649.228	114.618
652.12	145.862
655.013	13.2547
657.906	121.271
660.799	46.7795
663.691	22.0094
666.584	163.066
669.477	79.2748
672.369	62.345
675.262	100.034
678.155	90.0025
681.048	58.0011
683.94	81.3084
686.833	92.8186
689.726	114.749
692.618	56.2246
695.511	140.583
698.404	170.78
701.296	105.795
704.189	101.642
707.082	215.785
709.975	200.788
712.867	135.752
715.76	209.17
718.653	117.585
721.545	126.858
724.438	234.634
727.331	67.3027
730.223	75.8382
733.116	99.6877
736.009	112.059
738.902	97.4139
741.794	279.237
744.687	16.647
747.58	242.791
750.472	232.897
753.365	141.755
756.258	201.316
759.15	1.38475
762.043	120.715
764.936	125.478
767.828	196.89
770.721	111.849
773.614	10.7171
776.507	129.078
779.399	33.8519
782.292	68.43
785.185	187.768
788.077	83.7431
790.97	74.1778
793.863	185.283
796.755	146.759
799.648	12.3752
802.541	153.422
805.434	54.3535
808.326	26.2955
811.219	16.5202
814.112	130.626
817.004	101.797
819.897	78.0765
822.79	177.391
825.683	130.927
828.575	194.191
831.468	201.643
834.361	97.6048
837.253	70.3584
840.146	307.328
843.039	154.784
845.931	218.654
848.824	175.379
851.717	19.2866
854.61	77.7467
857.502	148.773
860.395	146.807
863.288	72.3179
866.18	130.695
869.073	10.2142
871.966	107.906
874.858	50.739
877.751	92.0705
880.644	94.6167
883.537	239.541
886.429	93.5422
889.322	214.13
892.215	75.4086
895.107	156.45
898	129.088
900.893	144.734
903.785	123.504
906.678	110.706
909.571	190.1
912.463	113.803
915.356	165.593
918.249	51.8758
921.142	62.8896
924.034	129.265
926.927	70.9133
929.82	125.532
932.712	69.8427
935.605	161.369
938.498	78.6529
941.39	61.3375
944.283	13.921
947.176	18.9403
950.069	9.68263
952.961	121.168
955.854	156.247
958.747	67.1187
961.639	194.335
964.532	124.462
967.425	15.2189
970.317	112.281
973.21	179.078
976.103	18.9991
978.996	184.784
981.888	46.125
984.781	194.857
987.674	138.92
990.566	86.8053
993.459	52.0005
996.352	164.518
999.245	162.774
1002.14	164.26
1005.03	115.402
1007.92	132.916
1010.82	10.9036
1013.71	35.1753
1016.6	33.4868
1019.49	37.7001
1022.39	80.9718
1025.28	275.242
1028.17	228.739
1031.06	239.438
1033.96	61.6945
1036.85	84.4106
1039.74	196.503
1042.63	83.0738
1045.53	2.40593
1048.42	134.805
1051.31	77.0994
1054.21	16.7866
1057.1	69.7019
1059.99	142.396
1062.88	117.227
1065.78	151.735
1068.67	32.9883
1071.56	187.913
1074.45	86.0373
1077.35	75.9765
1080.24	198.254
1083.13	146.101
1086.03	166.192
1088.92	7.35081
1091.81	128.193
1094.7	231.181
1097.6	116.097
1100.49	212.355
1103.38	165.547
1106.27	128.724
1109.17	146.283
1112.06	48.4437
1114.95	15.141
1117.85	307.183
1120.74	51.5815
1123.63	145.476
1126.52	98.7701
1129.42	17.8519
1132.31	224.684
1135.2	90.944
1138.09	65.4332
1140.99	44.3178
1143.88	144.404
1146.77	142.052
1149.66	62.8044
1152.56	6.45028
1155.45	212.016
1158.34	181.366
1161.24	85.6862
1164.13	95.6454
1167.02	60.5201
1169.91	2.014
1172.81	4.07735
1175.7	298.297
1178.59	168.327
1181.48	133.329
1184.38	42.143
1187.27	188.459
1190.16	10.9337
1193.06	208.079
1195.95	166.297
1198.84	181.91
1201.73	62.3033
1204.63	101.327
1207.52	207.441
1210.41	85.7065
1213.3	58.4978
1216.2	55.9071
1219.09	131.792
1221.98	157.473
1224.88	130.171
1227.77	322.656
1230.66	198.126
1233.55	71.7791
1236.45	38.1176
1239.34	137.704
1242.23	1.42117
