Measurement: Raman, 532 nm, unoriented, Raman Data Processed
Mineral: Miersite
Rruff sample: R110034
Ideal chemistry: Ag^1+^I^1-^
Locality: Block 2-1, 100 meter level, Rubtsovsk mine, Rudniy Altai Mountains, Russia
Source: William W Pinch
Description: Greenish-yellow massive
Raman shift (cm-1)	intensity
205.718	83.2944
208.611	87.3665
211.504	84.9942
214.396	88.0283
217.289	85.1121
220.182	88.6782
223.074	88.3602
225.967	89.2194
228.86	88.118
231.752	89.3888
234.645	87.7689
237.538	90.4182
240.43	90.7196
243.323	86.1623
246.216	91.9223
249.109	88.6247
252.001	86.4012
254.894	89.106
257.787	87.1316
260.679	88.0049
263.572	92.9604
266.465	88.3191
269.358	87.6667
272.25	87.8004
275.143	90.466
278.036	87.0286
280.928	89.115
283.821	87.3216
286.714	86.1927
289.606	88.6862
292.499	88.2688
295.392	88.9298
298.284	89.155
301.177	88.0716
304.07	87.1229
306.963	88.1216
309.855	88.2566
312.748	88.7343
315.641	90.5174
318.533	89.2382
321.426	87.3517
324.319	88.584
327.212	89.4201
330.104	91.4531
332.997	91.0498
335.89	92.2963
338.782	92.1466
341.675	89.6793
344.568	91.2579
347.46	89.1368
350.353	90.9431
353.246	93.2112
356.139	91.13
359.031	93.8511
361.924	95.0661
364.817	94.0345
367.709	97.1552
370.602	91.8182
373.495	92.1073
376.387	92.0017
379.28	93.6033
382.173	92.6337
385.065	92.1738
387.958	96.289
390.851	93.0709
393.744	94.461
396.636	93.369
399.529	97.8112
402.422	95.5742
405.314	93.265
408.207	96.9495
411.1	95.9642
413.993	95.2559
416.885	95.417
419.778	95.2621
422.671	95.4895
425.563	95.5797
428.456	95.3982
431.349	95.9705
434.241	96.0159
437.134	96.896
440.027	95.4853
442.92	95.4259
445.812	98.114
448.705	98.1582
451.598	94.9944
454.49	99.9352
457.383	97.4138
460.276	99.6601
463.168	98.8496
466.061	97.5324
468.954	98.3839
471.846	98.9188
474.739	97.1691
477.632	100.059
480.525	102.043
483.417	102.619
486.31	101.908
489.203	100.769
492.095	100.131
494.988	98.9567
497.881	100.237
500.774	98.6465
503.666	99.4131
506.559	101.218
509.452	98.2096
512.344	100.993
515.237	100.602
518.13	102.203
521.022	101.487
523.915	101.087
526.808	99.9156
529.701	101.873
532.593	102.491
535.486	99.8206
538.379	100.865
541.271	100.296
544.164	102.167
547.057	99.5065
549.949	101.278
552.842	99.9937
555.735	103.232
558.628	105.621
561.52	103.351
564.413	100.808
567.306	102.846
570.198	103.127
573.091	101.247
575.984	101.717
578.876	106.45
581.769	104.733
584.662	103.834
587.554	103.673
590.447	103.666
593.34	104.195
596.232	103.683
599.125	103.475
602.018	104.017
604.911	103.751
607.803	104.526
610.696	105.958
613.589	103.778
616.481	105.408
619.374	105.139
622.267	103.581
625.159	104.826
628.052	106.955
630.945	105.772
633.838	105.388
636.73	106.495
639.623	105.202
642.516	104.043
645.408	106.923
648.301	105.066
651.194	105.332
654.087	106.979
656.979	106.402
659.872	108.267
662.765	108.362
665.657	105.629
668.55	107.311
671.443	108.828
674.335	106.846
677.228	108.641
680.121	106.617
683.014	108.764
685.906	109.544
688.799	107.168
691.692	108.678
694.584	110.351
697.477	110.126
700.37	107.582
703.263	108.704
706.155	105.907
709.048	109.217
711.941	108.428
714.833	107.933
717.726	109.104
720.619	109.153
723.511	110.364
726.404	111.502
729.297	109.611
732.189	108.436
735.082	112.608
737.975	112.388
740.868	110.88
743.76	110.808
746.653	109.862
749.546	110.834
752.438	111.155
755.331	111.484
758.224	111.628
761.116	112.338
764.009	109.33
766.902	110.625
769.795	114.424
772.687	109.712
775.58	111.422
778.473	112.138
781.365	110.461
784.258	114.012
787.151	110.838
790.043	111.999
792.936	113.385
795.829	111.8
798.722	112.806
801.614	112.299
804.507	112.308
807.4	116.147
810.292	111.84
813.185	111.986
816.078	111.394
818.971	112.701
821.863	113.432
824.756	116.385
827.649	114.172
830.541	114.716
833.434	112.313
836.327	112.974
839.219	113.744
842.112	114.779
845.005	113.043
847.898	116.034
850.79	111.926
853.683	115.713
856.576	114.606
859.468	114.934
862.361	115.597
865.254	115.835
868.146	115.737
871.039	115.552
873.932	116.704
876.824	114.06
879.717	114.246
882.61	116.369
885.503	117.45
888.395	113.075
891.288	116.528
894.181	116.062
897.073	118.053
899.966	116.037
902.859	117.807
905.751	117.547
908.644	116.184
911.537	116.15
914.43	115.149
917.322	118.24
920.215	118.143
923.108	119.534
926	118.449
928.893	120.026
931.786	116.866
934.678	117.753
937.571	118.342
940.464	120.321
943.357	119.707
946.249	118.802
949.142	117.707
952.035	118.606
954.927	119.087
957.82	119.317
960.713	119.624
963.606	120.888
966.498	120.733
969.391	121.707
972.284	118.313
975.176	117.583
978.069	121.692
980.962	118.518
983.854	121.26
986.747	120.092
989.64	119.592
992.533	119.391
995.425	121.16
998.318	119.278
1001.21	120.271
1004.1	121.673
1007	122.868
1009.89	123.197
1012.78	120.166
1015.67	123.543
1018.57	122.584
1021.46	122.987
1024.35	121.218
1027.24	120.301
1030.14	122.579
1033.03	123.84
1035.92	122.887
1038.82	121.053
1041.71	122.131
1044.6	123.404
1047.49	122.763
1050.39	122.579
1053.28	123.909
1056.17	123.28
1059.07	126.102
1061.96	124.379
1064.85	124.385
1067.74	123.143
1070.63	126.075
1073.53	125.107
1076.42	125.031
1079.31	123.574
1082.21	126.692
1085.1	125.746
1087.99	125.573
1090.88	124.115
1093.78	126.13
1096.67	125.573
1099.56	127.112
1102.45	122.376
1105.35	127.602
1108.24	126.792
1111.13	130.307
1114.03	126.047
1116.92	126.816
1119.81	127.398
1122.7	125.626
1125.6	127.844
1128.49	126.606
1131.38	129.387
1134.28	125.848
1137.17	128.604
1140.06	126.974
1142.95	126.284
1145.85	127.904
1148.74	126.812
1151.63	127.5
1154.52	127.59
1157.42	127.479
1160.31	127.809
1163.2	125.712
1166.09	126.437
1168.99	128.706
1171.88	128.634
1174.77	127.698
1177.66	128.969
1180.56	126.763
1183.45	130.11
1186.34	131.327
1189.24	129.461
1192.13	128.226
1195.02	131.568
1197.91	129.839
1200.81	132.258
1203.7	128.411
1206.59	130.533
1209.48	127.9
1212.38	129.788
1215.27	132.367
1218.16	130.408
1221.06	129.52
1223.95	130.68
1226.84	130.786
1229.73	130.391
1232.63	131.762
1235.52	130.778
1238.41	130.976
1241.31	128.712
1244.2	131.826
1247.09	132.059
1249.98	130.242
1252.88	132.581
1255.77	130.439
1258.66	132.262
1261.55	131.516
1264.45	129.46
1267.34	132.088
1270.23	131.969
1273.12	131.219
1276.02	132.947
1278.91	131.729
1281.8	129.478
1284.69	132.792
1287.59	133.11
1290.48	132.74
1293.37	133.896
1296.27	132.697
1299.16	134.388
1302.05	132.351
