Measurement: Raman, 532 nm, unoriented, Raman Data Processed
Mineral: Miersite
Rruff sample: R110170
Ideal chemistry: Ag^1+^I^1-^
Locality: Proprietary mine, Broken Hill, Australia
Source: Marcus Origlieri
Description: Pale yellow tetrahedra, associated with hexagonal plates of iodargyrite
Raman shift (cm-1)	intensity
191.255	23.5356
194.147	26.6909
197.04	24.3634
199.933	26.7847
202.825	24.8309
205.718	28.301
208.611	28.0556
211.504	26.0277
214.396	31.207
217.289	29.1737
220.182	28.855
223.074	29.6766
225.967	30.8747
228.86	27.8647
231.752	29.7798
234.645	31.6618
237.538	31.5567
240.43	30.2199
243.323	30.5652
246.216	29.2291
249.109	30.1698
252.001	31.2289
254.894	28.9964
257.787	28.4065
260.679	29.6412
263.572	29.5842
266.465	28.1155
269.358	29.1445
272.25	27.8515
275.143	27.6087
278.036	28.209
280.928	25.9445
283.821	25.401
286.714	23.8516
289.606	22.465
292.499	26.2651
295.392	25.4421
298.284	25.4998
301.177	25.8438
304.07	26.02
306.963	25.3513
309.855	25.4763
312.748	24.7583
315.641	25.6548
318.533	25.9652
321.426	25.6607
324.319	24.9635
327.212	24.862
330.104	26.5485
332.997	25.6152
335.89	25.4955
338.782	27.4603
341.675	26.5362
344.568	26.5006
347.46	24.3404
350.353	25.3304
353.246	25.1315
356.139	25.1618
359.031	25.7135
361.924	26.4175
364.817	25.7463
367.709	25.665
370.602	24.3328
373.495	25.6905
376.387	24.7261
379.28	25.7748
382.173	26.1967
385.065	26.1922
387.958	25.481
390.851	26.4125
393.744	25.3241
396.636	26.2699
399.529	25.3361
402.422	26.9541
405.314	27.216
408.207	25.72
411.1	24.443
413.993	25.4702
416.885	25.1541
419.778	26.4016
422.671	25.2114
425.563	26.3119
428.456	26.0391
431.349	26.2626
434.241	26.2196
437.134	25.9916
440.027	28.1364
442.92	26.5416
445.812	25.4507
448.705	26.3245
451.598	27.5217
454.49	27.4541
457.383	25.7677
460.276	26.5826
463.168	26.1337
466.061	27.1357
468.954	27.6011
471.846	27.1414
474.739	26.2888
477.632	28.2142
480.525	26.3027
483.417	26.3839
486.31	27.2196
489.203	27.2754
492.095	26.5747
494.988	27.7363
497.881	26.9578
500.774	27.2987
503.666	28.4255
506.559	27.4888
509.452	29.0564
512.344	26.0471
515.237	28.0481
518.13	27.0755
521.022	28.3182
523.915	28.3073
526.808	28.8785
529.701	28.1362
532.593	28.2168
535.486	27.6583
538.379	28.3749
541.271	27.6047
544.164	27.0148
547.057	27.718
549.949	27.3368
552.842	27.6587
555.735	27.7482
558.628	27.0621
561.52	29.1884
564.413	27.462
567.306	27.2657
570.198	29.2487
573.091	28.4169
575.984	27.0837
578.876	27.6618
581.769	28.2348
584.662	27.8642
587.554	28.232
590.447	28.1186
593.34	28.3823
596.232	28.5346
599.125	28.4399
602.018	26.2173
604.911	28.7615
607.803	27.9747
610.696	27.8743
613.589	28.7969
616.481	29.0856
619.374	27.9869
622.267	30.1182
625.159	28.3831
628.052	28.6873
630.945	28.7897
633.838	27.901
636.73	27.6264
639.623	29.1296
642.516	28.4078
645.408	30.4142
648.301	29.3219
651.194	29.145
654.087	29.3475
656.979	28.9957
659.872	28.2505
662.765	29.366
665.657	30.0973
668.55	29.3313
671.443	28.5404
674.335	29.5532
677.228	29.1036
680.121	30.4139
683.014	29.0388
685.906	29.3879
688.799	30.4397
691.692	29.8232
694.584	29.1043
697.477	29.9874
700.37	28.5644
703.263	28.33
706.155	29.4308
709.048	29.746
711.941	29.735
714.833	29.077
717.726	29.2275
720.619	28.9541
723.511	30.7101
726.404	30.8762
729.297	28.7004
732.189	30.0805
735.082	30.0119
737.975	30.1887
740.868	30.9497
743.76	29.2384
746.653	30.5387
749.546	30.7531
752.438	30.2444
755.331	30.0692
758.224	29.6426
761.116	30.0224
764.009	29.7891
766.902	30.2444
769.795	29.5948
772.687	30.2491
775.58	30.814
778.473	30.6344
781.365	30.908
784.258	30.5944
787.151	30.5653
790.043	29.5243
792.936	30.5217
795.829	29.8098
798.722	29.5276
801.614	30.2762
804.507	30.7803
807.4	30.9343
810.292	30.5333
813.185	31.5228
816.078	31.1171
818.971	29.7508
821.863	30.4479
824.756	31.6309
827.649	30.193
830.541	30.0172
833.434	30.4221
836.327	31.1413
839.219	31.6492
842.112	31.3461
845.005	31.6269
847.898	30.5403
850.79	30.4167
853.683	31.2652
856.576	30.658
859.468	31.0223
862.361	30.5956
865.254	31.4031
868.146	29.8986
871.039	30.9597
873.932	31.2159
876.824	30.9899
879.717	27.5468
882.61	31.3671
885.503	29.9828
888.395	31.7002
891.288	31.2416
894.181	28.9237
897.073	30.6374
899.966	31.0573
902.859	31.713
905.751	30.3078
908.644	31.6694
911.537	30.999
914.43	29.4565
917.322	33.475
920.215	31.8562
923.108	31.9802
926	32.3827
928.893	31.4952
931.786	31.4138
934.678	32.6331
937.571	31.134
940.464	31.7417
943.357	31.4634
946.249	31.4915
949.142	31.2823
952.035	31.6763
954.927	32.0867
957.82	32.0379
960.713	32.1267
963.606	32.8076
966.498	31.9982
969.391	32.198
972.284	31.325
975.176	31.1077
978.069	31.281
980.962	30.6084
983.854	31.496
986.747	32.2411
989.64	31.52
992.533	31.5883
995.425	31.651
998.318	30.5051
1001.21	32.0802
1004.1	32.4885
1007	32.3989
1009.89	33.3063
1012.78	33.9234
1015.67	31.6193
1018.57	32.0279
1021.46	32.4542
1024.35	32.5691
1027.24	32.4123
1030.14	32.25
1033.03	31.0308
1035.92	32.2754
1038.82	31.8161
1041.71	32.3716
1044.6	31.9262
1047.49	31.8987
1050.39	32.3171
1053.28	32.6037
1056.17	33.94
1059.07	31.2863
1061.96	33.1939
1064.85	33.0403
1067.74	33.437
1070.63	32.9659
1073.53	33.2719
1076.42	31.454
1079.31	33.7347
1082.21	32.7829
1085.1	31.9836
1087.99	32.9066
1090.88	33.6509
1093.78	33.3015
1096.67	33.4735
1099.56	32.4583
1102.45	32.5829
1105.35	32.5123
1108.24	33.4694
1111.13	32.2852
1114.03	32.0352
1116.92	32.3001
1119.81	32.5831
1122.7	33.4905
1125.6	33.4129
1128.49	32.3922
1131.38	33.8914
1134.28	33.0821
1137.17	33.8322
1140.06	33.9249
1142.95	33.3891
1145.85	33.5484
1148.74	33.5897
1151.63	32.9075
1154.52	32.9183
1157.42	34.0803
1160.31	33.4576
1163.2	34.1423
1166.09	34.218
1168.99	32.847
1171.88	33.9886
1174.77	34.0289
1177.66	34.4095
1180.56	34.7994
1183.45	33.3305
1186.34	33.6215
1189.24	34.4667
1192.13	34.7105
1195.02	32.3202
1197.91	32.6127
1200.81	34.8526
1203.7	34.1038
1206.59	34.1044
1209.48	34.2237
1212.38	33.7641
1215.27	34.0345
1218.16	33.6177
1221.06	33.7384
1223.95	34.2274
1226.84	33.0431
1229.73	32.8883
1232.63	34.766
1235.52	33.5568
1238.41	33.3618
1241.31	33.0344
1244.2	33.1423
1247.09	34.638
1249.98	32.8656
1252.88	33.8433
1255.77	34.4583
1258.66	34.6786
1261.55	34.6896
1264.45	34.2317
1267.34	33.947
1270.23	36.3948
1273.12	34.7966
1276.02	33.3103
1278.91	33.5045
1281.8	35.1882
1284.69	35.0386
1287.59	34.0061
1290.48	33.7718
1293.37	34.7416
1296.27	34.2859
1299.16	35.6202
1302.05	32.999
