Measurement: Raman, 780 nm, unoriented, Raman Data Processed
Mineral: Millerite
Rruff sample: R080122
Ideal chemistry: NiS
Locality: Eugenia mine, Bellmunt del Priorat, Tarragona, Catalonia, Spain
Source: Joan Abella i Creus
Description: Metallic-bronze striated crystals
Raman shift (cm-1)	intensity
135.245	0
138.138	0.319682
141.031	0.287592
143.923	0.490798
146.816	1.42525
149.709	0.789486
152.601	0.28101
155.494	0.389268
158.387	0.046633
161.28	0.031549
164.172	0.906235
167.065	0.951697
169.958	1.01885
172.85	1.00291
175.743	0.631034
178.636	0.865989
181.529	0.393502
184.421	0.442134
187.314	0.744329
190.207	0.564162
193.099	0.120285
195.992	0.061844
198.885	0.364087
201.777	0.43084
204.67	0.250271
207.563	0.472283
210.456	0.322467
213.348	0.279984
216.241	0.862479
219.134	0.699712
222.026	1.05365
224.919	1.18539
227.812	1.73569
230.704	1.68491
233.597	2.08696
236.49	2.32102
239.382	3.23923
242.275	4.14274
245.168	4.18546
248.061	3.48773
250.953	1.96005
253.846	0.747162
256.739	0.28215
259.631	0.060342
262.524	0.089774
265.417	0.011462
268.31	0.015785
271.202	0.022841
274.095	0.594784
276.988	0.349212
279.88	0.731676
282.773	0.492696
285.666	0.533613
288.558	0.137741
291.451	0.339581
294.344	0.601338
297.237	0.648544
300.129	0.125082
303.022	0.613123
305.915	0.637089
308.807	0.178983
311.7	0.109641
314.593	0.266867
317.486	0.095576
320.378	0.05814
323.271	0.115664
326.164	0.013459
329.056	0.080657
331.949	0.123721
334.842	0.038223
337.734	0.180038
340.627	0.167793
343.52	0.418993
346.413	0.359575
349.305	0.802928
352.198	0.375151
355.091	0.178615
357.983	0.213179
360.876	0.578687
363.769	0.444535
366.661	0.109313
369.554	0.331764
372.447	0.320606
375.339	0.82885
378.232	0.306054
381.125	0.516844
384.018	0.230349
386.91	0.017056
389.803	0.376222
392.696	0.270883
395.588	0.071728
398.481	0.250893
401.374	0.013139
404.267	0.167795
407.159	0.342807
410.052	0.311478
412.945	0.330075
415.837	0.455231
418.73	0.416403
421.623	0.022739
424.515	0.275478
427.408	0.723065
430.301	0.75126
433.194	0.318187
436.086	0.293367
438.979	0.096451
441.872	0.01538
444.764	0.298511
447.657	0.157002
450.55	0.587784
453.442	0.045469
456.335	0.281256
459.228	0.479993
462.121	0.179328
465.013	0.307352
467.906	0.211375
470.799	0.213491
473.691	0.404481
476.584	0.290176
479.477	0.410615
482.37	0.615709
485.262	0.021585
488.155	0.391249
491.048	0.084056
493.94	0.217561
496.833	0.446246
499.726	0.265899
502.618	0.368229
505.511	0.108017
508.404	0.001484
511.296	0.568186
514.189	0.134429
517.082	0.343165
519.975	0.202989
522.867	0.005215
525.76	0.00699072
528.653	0.144649
531.545	0.33481
534.438	0.389421
537.331	0.357687
540.224	-0.056488
543.116	0.383626
546.009	0.416726
548.902	0.441562
551.794	0.190113
554.687	0.325039
557.58	0.0595248
560.472	0.370726
563.365	0.547266
566.258	0.326871
569.151	0.373561
572.043	0.108925
574.936	0.287005
577.829	0.473856
580.721	0.235468
583.614	0.209033
586.507	0.052463
589.399	0.35804
592.292	0.130728
595.185	0.19242
598.078	0.515006
600.97	0.100493
603.863	0.0796
606.756	0.16991
609.648	0.533761
612.541	0.131863
615.434	0.005194
618.327	0.233777
621.219	0.70235
624.112	0.276691
627.005	0.055048
629.897	0.005751
632.79	0.339134
635.683	0.078838
638.575	0.477626
641.468	0.552164
644.361	0.012437
647.254	0.033426
650.146	0.546524
653.039	0.304794
655.932	0.218264
658.824	0.329096
661.717	0.449881
664.61	0.309821
667.502	0.292761
670.395	0.063963
673.288	0.359048
676.181	0.724539
679.073	0.157264
681.966	0.347595
684.859	0.158747
687.751	0.200327
690.644	0.061846
693.537	0.09924
696.429	0.305445
699.322	0.500638
702.215	0.049749
705.107	0.35305
708	0.122582
710.893	0.380804
713.786	0.097412
716.678	0.006247
719.571	0.161958
722.464	0.084928
725.356	0.662707
728.249	0.119943
731.142	0.032019
734.034	0.34277
736.927	0.048395
739.82	0.289633
742.713	0.153625
745.605	0.200528
748.498	0.624534
751.391	0.181875
754.284	0.605013
757.176	0.145031
760.069	0.170421
762.962	0.229726
765.854	0.019783
768.747	0.129929
771.64	0.199718
774.532	0.055314
777.425	0.063468
780.318	0.132763
783.211	0.238338
786.103	0.253463
788.996	0.250816
791.889	0.306368
794.781	0.216579
797.674	0.011938
800.567	0.219586
803.459	0.598412
806.352	0.037648
809.245	0.429018
812.138	0.436635
815.03	0.373709
817.923	0.335076
820.816	0.561674
823.708	0.717943
826.601	0.613562
829.494	0.608659
832.386	0.663993
835.279	0.663166
838.172	0.998667
841.065	0.226349
843.957	0.720557
846.85	0.571456
849.743	0.739146
852.635	0.705186
855.528	0.779856
858.421	0.675262
861.313	1.21388
864.206	0.599042
867.099	0.598797
869.992	0.466319
872.884	0.930701
875.777	1.04014
878.67	0.872399
881.562	0.188411
884.455	0.268092
887.348	0.776593
890.24	0.171228
893.133	0.196871
896.026	0.52513
898.919	0.486804
901.811	0.167285
904.704	0.043866
907.597	0.519577
910.489	0.218555
913.382	0.016101
916.275	0.215948
919.168	0.052361
922.06	0.136239
924.953	0.027406
927.846	0.026039
930.738	0.107273
933.631	0.4473
936.524	0.286448
939.416	0.64662
942.309	0.219245
945.202	0.27096
948.095	0.002666
950.987	0.658907
953.88	0.341733
956.773	0.376917
959.665	0.310601
962.558	0.039865
965.451	0.411681
968.343	0.355744
971.236	0.099383
974.129	0.702255
977.021	0.103036
979.914	0.529228
982.807	0.484692
985.7	0.427692
988.592	0.082592
991.485	0.610895
994.378	0.331342
997.27	0.624247
1000.16	0.333442
1003.06	0.262043
1005.95	0.063049
1008.84	0.060956
1011.73	0.253084
1014.63	0.407828
1017.52	0.376477
1020.41	0.162618
1023.3	0.539436
1026.2	0.426932
1029.09	0.26664
1031.98	0.744014
1034.88	0.39188
1037.77	0.638775
1040.66	0.394592
1043.55	0.292966
1046.45	0.437151
1049.34	0.265601
1052.23	0.273062
1055.12	0.501722
1058.02	0.698085
1060.91	0.62287
1063.8	0.06522
1066.69	0.145887
1069.59	0.555116
1072.48	0.001608
1075.37	0.345873
1078.27	0.230771
1081.16	0.07938
1084.05	0.246544
1086.94	0.695559
1089.84	0.228429
1092.73	0.254184
1095.62	0.360589
1098.52	0.478282
1101.41	0.100656
1104.3	0.167803
1107.19	0.185831
1110.09	0.339319
1112.98	0.300952
1115.87	0.163884
1118.76	0.209349
1121.66	0.362047
1124.55	0.375231
1127.44	0.026453
1130.34	0.04105
1133.23	0.013567
1136.12	0.38556
1139.01	0.105256
1141.91	0.222621
1144.8	0.576258
1147.69	0.154
1150.58	0.178783
1153.48	0.270384
1156.37	0.024173
1159.26	0.05084
1162.15	0.030472
1165.05	0.000271
1167.94	0.410049
1170.83	0.288011
1173.72	0.00124
1176.62	0.035957
1179.51	0.241743
1182.4	0.510629
1185.3	0.051319
1188.19	0.475553
1191.08	0.355263
1193.97	0.011343
1196.87	0.206056
1199.76	0.052185
1202.65	0.037485
1205.55	0.156977
1208.44	0.131469
1211.33	0.32319
1214.22	0.080291
1217.12	0.462018
1220.01	0.170245
1222.9	0.249196
1225.79	0.41861
1228.69	0.006314
1231.58	0.024027
1234.47	0.254263
1237.37	0.226279
1240.26	0.196455
1243.15	0.267687
1246.04	0.431122
1248.94	0.141362
1251.83	0.235515
1254.72	0.090286
1257.61	0.010073
1260.51	0.509684
1263.4	0.241535
1266.29	0.03551
1269.18	0.302222
1272.08	0.289266
1274.97	0.122706
1277.86	0.4733
1280.76	0.109635
1283.65	0.371838
1286.54	0.245846
