Measurement: Raman, 780 nm, unoriented, Raman Data Processed
Mineral: Minasragrite
Rruff sample: R130365
Ideal chemistry: V^4+^O(S^6+^O_4_)5H_2_O
Locality: Minas Ragra mine, Pasco, Peru
Source: Tom Loomis
Description: Glassy blue crystals on patronite, associated with R130366 retgersite
Raman shift (cm-1)	intensity
103.252	0
106.627	0.126579
110.002	0.097371
113.377	0.211594
116.752	0.186931
120.127	0.541129
123.501	0.976834
126.876	1.0529
130.251	0.585554
133.626	0.187561
137.001	0.086952
140.375	0.635608
143.75	1.05313
147.125	0.014672
150.5	0.727906
153.875	0.493931
157.25	0.450176
160.624	0.559298
163.999	1.38927
167.374	1.61928
170.749	1.18229
174.124	1.17189
177.498	0.717291
180.873	1.03723
184.248	0.737493
187.623	1.01785
190.998	0.399485
194.373	1.01941
197.747	0.303216
201.122	0.37774
204.497	1.21597
207.872	0.038362
211.247	0.091222
214.621	0.164935
217.996	0.244196
221.371	0.028329
224.746	0.847815
228.121	0.006438
231.495	1.13962
234.87	1.43371
238.245	2.11561
241.62	3.68317
244.995	4.83549
248.369	6.6381
251.744	7.3044
255.119	6.72557
258.494	5.76462
261.869	3.63975
265.244	2.96581
268.618	2.33519
271.993	1.90949
275.368	2.46492
278.743	2.41647
282.118	1.43884
285.493	0.925273
288.867	0.48899
292.242	0.526977
295.617	0.717371
298.992	0.036803
302.366	0.557006
305.741	0.160667
309.116	0.978922
312.491	0.235096
315.866	0.916025
319.241	0.822561
322.615	0.369528
325.99	0.397984
329.365	0.104713
332.74	0.764021
336.115	0.337784
339.49	0.423517
342.864	0.692857
346.239	0.125307
349.614	0.10528
352.989	0.327682
356.364	0.649824
359.738	0.810749
363.113	0.989387
366.488	1.5657
369.863	2.52639
373.238	0.860288
376.613	1.3644
379.987	1.583
383.362	1.57076
386.737	0.350736
390.112	0.522044
393.486	0.765925
396.861	0.615221
400.236	0.570809
403.611	0.239631
406.986	0.102216
410.361	0.703885
413.735	0.277528
417.11	0.011193
420.485	0.546718
423.86	0.404196
427.235	0.17658
430.61	0.046436
433.984	0.761474
437.359	0.572374
440.734	0.074185
444.109	0.709344
447.484	2.21185
450.858	1.80192
454.233	1.13846
457.608	1.00828
460.983	0.849537
464.358	0.756489
467.733	0.529829
471.107	1.21485
474.482	0.416763
477.857	1.13807
481.232	0.702869
484.606	0.814168
487.981	1.00023
491.356	0.214683
494.731	0.072269
498.106	0.934858
501.481	0.420772
504.855	0.130645
508.23	0.342329
511.605	0.204451
514.98	1.02493
518.355	0.024106
521.73	0.743678
525.104	1.41424
528.479	1.26297
531.854	0.554608
535.229	1.56619
538.604	2.39157
541.978	3.80849
545.353	2.78277
548.728	1.82985
552.103	1.23867
555.478	0.023422
558.852	0.393419
562.227	0.53283
565.602	1.16318
568.977	0.006119
572.352	0.266832
575.726	0.007957
579.101	0.192325
582.476	0.576986
585.851	0.580151
589.226	0.127808
592.601	0.108807
595.975	0.071397
599.35	0.597726
602.725	0.467997
606.1	0.76064
609.475	0.819649
612.85	0.306321
616.224	0.332601
619.599	0.654946
622.974	1.21737
626.349	0.908663
629.723	0.18303
633.098	0.7754
636.473	1.12937
639.848	1.64846
643.223	0.164846
646.598	1.51608
649.972	1.26996
653.347	1.32305
656.722	1.25292
660.097	0.832791
663.472	1.05854
666.846	1.00018
670.221	0.808071
673.596	0.770235
676.971	0.428709
680.346	0.811488
683.721	0.028598
687.095	1.68236
690.47	0.115123
693.845	0.363325
697.22	0.360939
700.595	0.510558
703.97	0.536124
707.344	0.797379
710.719	0.411975
714.094	0.753605
717.469	1.63421
720.843	0.96477
724.218	1.0799
727.593	1.23836
730.968	1.92437
734.343	1.48119
737.718	0.599373
741.092	0.720559
744.467	1.18811
747.842	1.35008
751.217	1.28428
754.592	1.44283
757.966	0.129821
761.341	1.19976
764.716	0.222648
768.091	1.47772
771.466	0.435674
774.841	1.09926
778.215	0.771344
781.59	0.39204
784.965	0.053907
788.34	1.03282
791.715	1.26574
795.089	0.317578
798.464	1.28526
801.839	0.493525
805.214	1.06547
808.589	1.91784
811.963	1.05182
815.338	0.970728
818.713	0.570267
822.088	0.937905
825.463	0.522753
828.838	1.54326
832.212	0.464286
835.587	0.892676
838.962	1.29914
842.337	1.61057
845.712	0.253782
849.087	1.37226
852.461	0.674571
855.836	0.319065
859.211	0.581103
862.586	1.35638
865.961	1.81133
869.335	1.5509
872.71	1.94279
876.085	0.719492
879.46	0.486031
882.835	0.162768
886.209	1.28843
889.584	0.168488
892.959	0.165221
896.334	1.07622
899.709	1.45839
903.083	0.284721
906.458	0.740524
909.833	0.689042
913.208	0.055955
916.583	2.08053
919.958	0.153214
923.332	0.330251
926.707	1.02005
930.082	0.931539
933.457	1.08027
936.832	0.771185
940.207	0.38822
943.581	0.538826
946.956	0.034118
950.331	0.158293
953.706	0.302419
957.081	0.272023
960.455	0.15458
963.83	0.048301
967.205	1.64882
970.58	1.8867
973.955	2.73749
977.329	3.56769
980.704	4.54584
984.079	6.08843
987.454	5.58371
990.829	5.65878
994.203	5.4244
997.578	4.54437
1000.95	3.03732
1004.33	1.35384
1007.7	3.49895
1011.08	1.53048
1014.45	0.367759
1017.83	1.27258
1021.2	0.056002
1024.58	0.175567
1027.95	0.182868
1031.33	0.907864
1034.7	0.95672
1038.08	1.55451
1041.45	1.65805
1044.83	3.33167
1048.2	3.14013
1051.58	2.08066
1054.95	2.73929
1058.33	3.13036
1061.7	2.4201
1065.08	2.85925
1068.45	0.839104
1071.82	2.95377
1075.2	1.99684
1078.57	1.9161
1081.95	1.67488
1085.32	0.994717
1088.7	4.00207
1092.07	1.51089
1095.45	1.75983
1098.82	0.48412
1102.2	0.592555
1105.57	1.06981
1108.95	0.709683
1112.32	0.881554
1115.7	1.51544
1119.07	0.296862
1122.45	1.94392
1125.82	0.265172
1129.2	0.273416
1132.57	1.27782
1135.95	0.397886
1139.32	3.66283
1142.69	1.4441
1146.07	2.19941
1149.44	1.68522
1152.82	2.87096
1156.19	2.68006
1159.57	1.51582
1162.94	1.23645
1166.32	2.32661
1169.69	4.42117
1173.07	6.1287
1176.44	3.05314
1179.82	3.33134
1183.19	2.37382
1186.57	2.7589
1189.94	2.5486
1193.32	4.18675
1196.69	4.21978
1200.07	3.44239
1203.44	3.1926
1206.82	0.790677
1210.19	2.04703
1213.57	0.039193
1216.94	0.621611
1220.32	0.511552
1223.69	1.6002
1227.07	0.707634
1230.44	0.721359
1233.82	0.210655
1237.19	0.171741
1240.57	0.0018
1243.94	1.65596
1247.32	3.08839
1250.69	4.33728
1254.06	2.83398
1257.44	0.898881
1260.81	0.738391
1264.19	3.89599
1267.56	1.12196
1270.94	1.08052
1274.31	1.75773
1277.69	1.93224
1281.06	1.06187
