Measurement: Raman, 780 nm, unoriented, Raman Data RAW
Mineral: Miserite
Rruff sample: R060393
Ideal chemistry: K_1.5-x_(Ca,Y,REE)_5_[Si_6_O_15_][Si_2_O_7_](OH,F)_2_yH_2_O
Locality: Wilson Springs, Garland County, Arkansas, USA
Source: Michael Scott
Description: Pale purple mass of prismatic to flaky fragments
Raman shift (cm-1)	intensity
127.246	411.126
130.621	409.452
133.996	409.824
137.371	413.783
140.746	417.88
144.12	420.125
147.495	422.183
150.87	429.574
154.245	435.771
157.62	441.925
160.994	449.59
164.369	457.916
167.744	466.847
171.119	478.803
174.494	491.592
177.869	506.64
181.243	514.898
184.618	529.032
187.993	537.824
191.368	550.02
194.743	559.796
198.117	571.027
201.492	583.542
204.867	594.291
208.242	603.73
211.617	615.197
214.992	631.154
218.366	642.048
221.741	665.54
225.116	688.695
228.491	716.457
231.866	741.139
235.24	766.615
238.615	785.779
241.99	799.675
245.365	808.851
248.74	807.023
252.114	800.53
255.489	790.159
258.864	793.021
262.239	807.119
265.614	827.293
268.988	855.293
272.363	894.278
275.738	935.04
279.113	985.221
282.488	1033.45
285.863	1075.67
289.237	1116.09
292.612	1149.45
295.987	1175.41
299.362	1202.62
302.737	1226.45
306.111	1238.27
309.486	1253.09
312.861	1250.35
316.236	1259.83
319.611	1278.73
322.986	1302.54
326.36	1326.35
329.735	1353.78
333.11	1382.03
336.485	1424.65
339.86	1463.75
343.234	1501.01
346.609	1533.1
349.984	1549.92
353.359	1566.48
356.734	1603.31
360.108	1626.61
363.483	1653.59
366.858	1687.54
370.233	1721.54
373.608	1751.37
376.983	1786.01
380.357	1801
383.732	1800.1
387.107	1779.13
390.482	1734.32
393.857	1672.48
397.231	1615.46
400.606	1561.67
403.981	1522.56
407.356	1505.87
410.731	1516
414.106	1544.3
417.48	1599.02
420.855	1675.81
424.23	1762.14
427.605	1863.28
430.98	1958.28
434.354	2047.83
437.729	2121.67
441.104	2178.36
444.479	2208.52
447.854	2187.55
451.228	2144.4
454.603	2072.94
457.978	1978.37
461.353	1877.61
464.728	1774.4
468.103	1666.98
471.477	1575.04
474.852	1493.68
478.227	1426.93
481.602	1365.57
484.977	1312.39
488.351	1263.41
491.726	1217.27
495.101	1189.34
498.476	1148.98
501.851	1123.63
505.226	1101.89
508.6	1084.49
511.975	1066.22
515.35	1045.83
518.725	1024.92
522.1	1006.87
525.474	983.567
528.849	971.15
532.224	951.863
535.599	940.342
538.974	923.895
542.348	912.636
545.723	903.847
549.098	891.918
552.473	888.542
555.848	885.959
559.222	885.335
562.597	883.369
565.972	878.007
569.347	879.737
572.722	872.656
576.097	872.43
579.471	868.79
582.846	859.214
586.221	849.116
589.596	843.887
592.971	838.867
596.346	826.716
599.72	825.549
603.095	821.974
606.47	819.796
609.845	823.428
613.22	825.501
616.594	831.248
619.969	843.952
623.344	854.502
626.719	866.38
630.094	867.226
633.468	880.464
636.843	893.275
640.218	901.967
643.593	864.239
646.968	817.675
650.342	788.583
653.717	763.376
657.092	743.858
660.467	727.163
663.842	713.768
667.217	699.029
670.591	684.232
673.966	671.311
677.341	661.322
680.716	651.832
684.091	640.677
687.466	635.462
690.84	625.387
694.215	619.856
697.59	618.405
700.965	609.991
704.34	606.63
707.714	608.572
711.089	606.154
714.464	611.23
717.839	611.622
721.214	616.085
724.588	628.836
727.963	634.993
731.338	641.803
734.713	653.047
738.088	657.126
741.462	663.745
744.837	666.897
748.212	672.904
751.587	675.808
754.962	681.32
758.337	694.502
761.711	704.759
765.086	717.377
768.461	730.7
771.836	739.53
775.211	745.485
778.586	745.485
781.96	735.905
785.335	716.799
788.71	694.697
792.085	679.892
795.46	667.192
798.834	652.962
802.209	643.013
805.584	638.193
808.959	627.431
812.334	628.983
815.708	629.613
819.083	636.732
822.458	634.56
825.833	645.195
829.208	653.165
832.582	661.047
835.957	667.513
839.332	670.408
842.707	672.491
846.082	676.847
849.457	670.862
852.831	662.544
856.206	652.012
859.581	644.358
862.956	635.135
866.331	631.513
869.706	628.458
873.08	633.179
876.455	637.543
879.83	642.724
883.205	650.996
886.58	657.775
889.954	661.506
893.329	667.075
896.704	664.188
900.079	664.229
903.454	660.519
906.828	656.531
910.203	653.81
913.578	645.804
916.953	635.034
920.328	628.142
923.702	615.592
927.077	608.286
930.452	598.541
933.827	589.269
937.202	579.688
940.577	576.62
943.951	576.895
947.326	578.147
950.701	589.883
954.076	592.932
957.451	608.375
960.825	638.193
964.2	683.42
967.575	646.523
970.95	617.591
974.325	615.281
977.699	620.444
981.074	619.334
984.449	628.457
987.824	633.356
991.199	638.142
994.574	638.068
997.948	641.56
1001.32	638.34
1004.7	644.02
1008.07	642.157
1011.45	644.091
1014.82	643.066
1018.2	642.238
1021.57	645.308
1024.95	652.481
1028.32	659.99
1031.7	664.324
1035.07	674.121
1038.45	683.694
1041.82	697.433
1045.2	707.059
1048.57	724.769
1051.94	731.666
1055.32	734.766
1058.69	742.929
1062.07	751.992
1065.44	757.032
1068.82	763.133
1072.19	775.675
1075.57	784.561
1078.94	801.24
1082.32	816.606
1085.69	831.105
1089.07	850.107
1092.44	870.293
1095.82	886.554
1099.19	907.32
1102.57	926.417
1105.94	955.374
1109.32	992.272
1112.69	1028.41
1116.07	1063.9
1119.44	1102.3
1122.82	1154.69
1126.19	1194.17
1129.57	1250.35
1132.94	1329
1136.32	1420.46
1139.69	1486.55
1143.07	1471.6
1146.44	1454.41
1149.82	1467.75
1153.19	1500.78
1156.57	1554.58
1159.94	1615.9
1163.31	1674.35
1166.69	1748.21
1170.06	1803.69
1173.44	1873.39
1176.81	1936.07
1180.19	2002.2
1183.56	2064.22
1186.94	2124.71
1190.31	2198.09
1193.69	2274.51
1197.06	2353.2
1200.44	2447.76
1203.81	2539.37
1207.19	2646.37
1210.56	2761.42
1213.94	2866.92
1217.31	2984.98
1220.69	3101.49
1224.06	3244.32
1227.44	3400.48
1230.81	3575.52
1234.18	3789.28
1237.56	4033.14
1240.93	4317.8
1244.31	4653.44
1247.68	5032.78
1251.06	5482.61
1254.43	5968.56
1257.81	6507.71
1261.18	7094.48
1264.56	7675.45
1267.93	8272.04
1271.31	8842.6
1274.68	9390.56
1278.06	9943.75
1281.43	10508.7
1284.81	11064.9
