Measurement: Raman, 780 nm, unoriented, Raman Data Processed
Mineral: Molybdenum
Rruff sample: R100216
Ideal chemistry: Mo
Locality: Mining concentrate
Source: Mike Carducci, Climax Molybdenum Technology Center
Description: Black unconsolidated powder
Raman shift (cm-1)	intensity
166.78	0
169.673	0.638847
172.565	1.61713
175.458	3.78825
178.351	1.43803
181.243	5.56874
184.136	2.51685
187.029	3.6466
189.921	0.792213
192.814	1.46386
195.707	1.65911
198.6	0.172531
201.492	2.45827
204.385	2.64282
207.278	2.95037
210.17	3.47759
213.063	0.6716
215.956	3.02119
218.848	1.11803
221.741	0.768745
224.634	0.063305
227.526	4.61072
230.419	1.16185
233.312	0.987343
236.205	1.95919
239.097	2.16965
241.99	0.415836
244.883	0.203968
247.775	0.41116
250.668	2.78781
253.561	4.38165
256.454	2.78265
259.346	3.49234
262.239	4.11324
265.132	5.52289
268.024	9.34373
270.917	8.41806
273.81	7.27385
276.702	5.48339
279.595	5.22193
282.488	5.63284
285.38	4.98499
288.273	2.8998
291.166	0.026768
294.059	2.7305
296.951	2.29995
299.844	2.42272
302.737	0.574627
305.629	1.80736
308.522	4.26936
311.415	0.465851
314.307	3.68449
317.2	4.30743
320.093	5.49535
322.986	4.92086
325.878	2.19352
328.771	0.769226
331.664	4.08594
334.556	4.1726
337.449	4.50451
340.342	1.59048
343.234	3.36834
346.127	1.63424
349.02	5.27825
351.913	4.39571
354.805	4.06899
357.698	4.54861
360.591	5.58305
363.483	6.77776
366.376	8.08328
369.269	5.53718
372.161	4.14664
375.054	5.889
377.947	3.68245
380.839	2.02666
383.732	0.209763
386.625	3.03624
389.518	1.0926
392.41	2.97029
395.303	2.05127
398.196	1.82645
401.088	2.84967
403.981	0.574448
406.874	4.21566
409.767	0.398338
412.659	5.28935
415.552	2.7957
418.445	1.49111
421.337	3.57223
424.23	2.38847
427.123	0.446453
430.015	3.68311
432.908	1.52929
435.801	4.38201
438.693	2.65449
441.586	2.08271
444.479	4.73989
447.372	1.00195
450.264	2.76231
453.157	6.07906
456.05	2.12505
458.942	2.04563
461.835	4.83847
464.728	4.49765
467.62	4.7509
470.513	4.12071
473.406	2.91207
476.298	5.29927
479.191	2.82576
482.084	3.33895
484.977	3.77757
487.869	3.02799
490.762	2.24417
493.655	1.86977
496.547	0.500175
499.44	2.06326
502.333	3.40498
505.226	2.87297
508.118	1.16258
511.011	2.05198
513.904	1.9182
516.796	2.72115
519.689	1.18554
522.582	2.94333
525.474	5.05196
528.367	1.75894
531.26	2.31852
534.153	1.55701
537.045	1.82505
539.938	3.64881
542.831	2.25465
545.723	1.71314
548.616	3.21891
551.509	5.41972
554.401	2.30961
557.294	4.06326
560.187	4.58214
563.08	3.40497
565.972	4.72991
568.865	3.44436
571.758	3.43774
574.65	3.66707
577.543	3.90231
580.436	0.418343
583.328	0.334637
586.221	0.355701
589.114	0.113117
592.006	2.91479
594.899	1.9771
597.792	2.2303
600.685	2.07223
603.577	0.692184
606.47	4.08169
609.363	1.25074
612.255	2.13029
615.148	1.27647
618.041	1.35498
620.933	1.46818
623.826	0.684082
626.719	2.22211
629.611	1.43499
632.504	1.58977
635.397	2.10405
638.29	0.867741
641.182	2.31729
644.075	4.8205
646.968	1.25787
649.86	1.46805
652.753	3.64851
655.646	0.515095
658.538	3.27853
661.431	2.77221
664.324	2.97691
667.217	2.05712
670.109	1.06559
673.002	0.343884
675.895	4.13518
678.787	4.22014
681.68	2.72793
684.573	1.14659
687.466	1.07041
690.358	0.668308
693.251	1.41733
696.144	1.54271
699.036	2.70689
701.929	0.986031
704.822	0.997139
707.714	1.50253
710.607	1.44419
713.5	0.277412
716.393	3.63185
719.285	3.06163
722.178	0.957897
725.071	0.802422
727.963	4.21955
730.856	2.28074
733.749	1.83155
736.641	2.56634
739.534	0.640778
742.427	3.39814
745.319	0.991367
748.212	0.006107
751.105	1.38425
753.998	0.4025
756.89	4.15452
759.783	1.90993
762.676	0.749893
765.568	1.97292
768.461	4.70861
771.354	0.620911
774.246	2.08085
777.139	0.532383
780.032	6.42293
782.925	3.00583
785.817	2.48886
788.71	4.74993
791.603	4.80185
794.495	7.15743
797.388	5.22536
800.281	9.03973
803.173	10.429
806.066	11.9353
808.959	13.4932
811.851	10.8437
814.744	13.1127
817.637	9.51429
820.53	10.186
823.422	7.40283
826.315	7.5561
829.208	7.30716
832.1	2.12073
834.993	3.84343
837.886	3.94543
840.779	3.08125
843.671	2.75817
846.564	2.49304
849.457	2.86039
852.349	3.03342
855.242	4.74012
858.135	1.77699
861.027	1.94831
863.92	3.2795
866.813	3.72191
869.705	2.23699
872.598	3.65119
875.491	1.06308
878.384	1.1454
881.276	1.88654
884.169	1.4124
887.062	2.12513
889.954	2.2222
892.847	0.848076
895.74	2.3618
898.632	0.054455
901.525	1.9151
904.418	0.651234
907.311	0.494236
910.203	0.744652
913.096	1.30439
915.989	0.51363
918.881	2.2352
921.774	1.63194
924.667	1.35183
927.559	2.19321
930.452	1.30515
933.345	3.33788
936.237	1.65033
939.13	3.57253
942.023	3.04635
944.916	1.42651
947.808	1.63045
950.701	1.52211
953.594	1.2359
956.486	1.21514
959.379	1.95944
962.272	4.58625
965.164	2.78683
968.057	2.48938
970.95	5.99897
973.843	1.19822
976.735	2.78472
979.628	5.73455
982.521	5.24438
985.413	4.48839
988.306	6.18834
991.199	5.40391
994.091	5.51008
996.984	2.65492
999.877	1.04841
1002.77	3.29502
1005.66	2.27515
1008.55	2.51173
1011.45	3.85023
1014.34	1.95313
1017.23	0.272007
1020.13	2.88629
1023.02	1.17657
1025.91	2.50816
1028.8	0.847633
1031.7	4.54027
1034.59	2.68465
1037.48	3.16057
1040.38	3.16646
1043.27	1.71935
1046.16	5.59535
1049.05	3.81433
1051.94	3.87061
1054.84	2.16853
1057.73	2.13187
1060.62	3.87757
1063.52	3.18557
1066.41	1.59864
1069.3	1.71382
1072.19	2.58136
1075.09	3.58408
1077.98	4.31093
1080.87	1.0731
1083.77	4.58004
1086.66	2.06554
1089.55	2.40449
1092.44	0.430946
1095.34	0.588436
1098.23	4.94214
1101.12	1.94685
1104.01	2.29562
1106.91	4.28991
1109.8	2.83932
1112.69	1.58471
1115.59	3.29527
1118.48	2.06174
1121.37	2.69944
1124.26	1.65069
1127.16	2.31171
1130.05	2.87028
1132.94	2.7208
1135.83	4.30774
1138.73	0.113781
1141.62	2.43639
1144.51	1.01416
1147.4	2.41423
1150.3	4.1161
1153.19	0.377861
1156.08	1.37766
1158.97	1.97628
1161.87	6.10142
1164.76	1.01662
1167.65	1.33448
1170.55	3.84232
1173.44	2.1974
1176.33	5.61364
1179.22	0.868263
1182.12	1.45938
1185.01	3.54067
1187.9	1.97427
1190.8	1.50844
1193.69	1.26036
1196.58	4.67699
1199.47	2.01334
1202.37	2.6467
1205.26	2.65457
1208.15	3.7276
1211.04	1.96953
1213.94	0.33485
1216.83	4.58761
1219.72	0.355419
1222.62	3.45076
1225.51	0.147038
1228.4	1.2944
1231.29	2.04048
1234.18	1.88763
1237.08	0.472874
1239.97	2.57264
1242.86	1.56059
1245.76	1.84087
1248.65	0.770313
1251.54	3.4251
1254.43	2.60217
1257.33	3.18735
1260.22	3.34922
1263.11	0.833569
1266.01	1.16673
1268.9	1.74229
1271.79	2.40343
1274.68	4.88593
1277.58	0.047592
1280.47	1.05233
1283.36	0.623749
