Measurement: Raman, 532 nm, unoriented, Raman Data Processed
Mineral: Molybdenum
Rruff sample: R100216
Ideal chemistry: Mo
Locality: Mining concentrate
Source: Mike Carducci, Climax Molybdenum Technology Center
Description: Black unconsolidated powder
Raman shift (cm-1)	intensity
181.191	0
184.084	3.10585
186.976	13.417
189.869	4.49105
192.762	8.27513
195.655	10.4801
198.547	3.36185
201.44	8.31032
204.333	8.15377
207.225	10.1218
210.118	10.5554
213.011	5.60696
215.904	9.1089
218.796	6.15859
221.689	3.69544
224.582	0.563271
227.474	7.8952
230.367	0.846058
233.26	1.71188
236.152	3.99649
239.045	8.46236
241.938	4.93866
244.831	2.22554
247.723	1.2242
250.616	7.24537
253.509	13.7311
256.401	6.00408
259.294	3.61593
262.187	3.59356
265.079	2.45304
267.972	15.2027
270.865	6.4008
273.758	4.15274
276.65	1.97708
279.543	3.88792
282.436	5.50673
285.328	8.4796
288.221	6.43323
291.114	1.61972
294.007	6.32659
296.899	8.81051
299.792	5.13335
302.685	1.53261
305.577	4.46254
308.47	12.1989
311.363	2.1566
314.255	8.26665
317.148	5.92334
320.041	9.879
322.933	6.46196
325.826	8.33644
328.719	0.038372
331.612	6.05274
334.504	9.11795
337.397	3.99144
340.29	4.25542
343.183	7.71385
346.075	3.33976
348.968	8.54352
351.861	6.2916
354.753	6.98946
357.646	8.98312
360.539	12.4502
363.431	11.3732
366.324	11.9247
369.217	7.75942
372.11	7.40168
375.002	9.71797
377.895	8.84266
380.788	5.28077
383.68	0.31744
386.573	4.31952
389.466	2.47792
392.358	6.426
395.251	5.59072
398.144	6.26676
401.036	8.28341
403.929	2.01006
406.822	4.15158
409.715	3.85649
412.607	11.4924
415.5	8.1
418.393	5.43768
421.285	3.66836
424.178	4.77947
427.071	3.77074
429.964	6.26766
432.856	1.3659
435.749	12.6515
438.642	3.63954
441.534	5.15186
444.427	9.74944
447.32	2.99914
450.212	3.83992
453.105	7.82154
455.998	1.12176
458.891	1.00971
461.783	4.06522
464.676	7.1243
467.569	10.1778
470.461	1.83268
473.354	2.51143
476.247	7.92647
479.139	3.75839
482.032	5.44115
484.925	8.50085
487.818	3.42535
490.71	5.16662
493.603	6.05144
496.496	0.040421
499.388	6.84086
502.281	0.50391
505.174	4.74608
508.067	7.36387
510.959	9.08215
513.852	1.4169
516.745	7.49192
519.637	6.17572
522.53	4.12729
525.423	0.973839
528.316	1.03669
531.208	2.8273
534.101	7.02564
536.994	9.62072
539.886	8.07915
542.779	5.94335
545.672	9.17675
548.564	9.56525
551.457	11.5499
554.35	12.1411
557.242	4.78727
560.135	7.29796
563.028	7.17619
565.921	8.97285
568.813	8.53872
571.706	6.9167
574.599	7.01257
577.491	1.46804
580.384	9.74941
583.277	1.58232
586.17	3.97743
589.062	0.396023
591.955	8.6138
594.848	3.34794
597.74	5.3048
600.633	7.78155
603.526	6.4132
606.418	4.76051
609.311	10.9006
612.204	6.38364
615.097	7.34305
617.989	3.45706
620.882	4.304
623.775	6.40602
626.667	2.4715
629.56	2.86838
632.453	3.71584
635.346	2.05084
638.238	3.98899
641.131	2.69864
644.024	6.91141
646.916	8.54948
649.809	1.05085
652.702	0.752594
655.594	7.3317
658.487	0.894073
661.38	4.45076
664.273	3.23611
667.165	6.15953
670.058	1.44844
672.951	2.87935
675.843	4.76885
678.736	10.6087
681.629	7.27634
684.521	4.62289
687.414	2.63628
690.307	4.32611
693.199	2.9044
696.092	3.57844
698.985	4.40957
701.878	2.51751
704.77	1.58182
707.663	3.48034
710.556	3.08249
713.448	8.02588
716.341	2.57804
719.234	4.1325
722.127	0.288006
725.019	5.5666
727.912	1.73278
730.805	7.5087
733.697	6.35384
736.59	8.0682
739.483	0.168774
742.375	3.23071
745.268	6.87452
748.161	3.48089
751.054	5.07782
753.946	0.449051
756.839	3.72439
759.732	10.2894
762.625	6.16124
765.517	0.278164
768.41	5.61725
771.303	6.41527
774.195	5.17072
777.088	3.95836
779.981	1.31345
782.873	4.78414
785.766	10.9376
788.659	1.80986
791.552	0.754337
794.444	8.24081
797.337	3.3254
800.23	4.95685
803.122	5.88203
806.015	10.7776
808.908	6.81525
811.8	4.31825
814.693	6.97385
817.586	0.327122
820.479	8.92171
823.371	3.22201
826.264	5.77243
829.157	4.99433
832.049	4.93707
834.942	8.47627
837.835	3.14991
840.727	5.97736
843.62	4.37436
846.513	3.07811
849.405	2.93993
852.298	3.89196
855.191	4.67016
858.084	4.05745
860.976	7.47191
863.869	0.828876
866.762	5.64465
869.654	7.80375
872.547	5.06696
875.44	4.82566
878.333	1.18101
881.225	3.3528
884.118	12.5963
887.011	7.83414
889.903	4.46849
892.796	4.35014
895.689	4.74102
898.582	4.84478
901.474	5.23644
904.367	6.38454
907.26	3.68519
910.152	9.74434
913.045	0.165327
915.938	6.43584
918.83	2.47646
921.723	7.5711
924.616	3.04106
927.509	4.6683
930.401	3.78214
933.294	0.484449
936.187	4.2856
939.079	1.06676
941.972	7.92156
944.865	2.23116
947.757	7.95185
950.65	7.16625
953.543	4.08137
956.436	4.76533
959.328	4.30034
962.221	3.24566
965.114	5.66171
968.006	3.96454
970.899	9.10825
973.792	6.86718
976.684	6.49242
979.577	10.9592
982.47	7.35417
985.362	5.63776
988.255	4.14694
991.148	4.31222
994.041	4.32198
996.933	5.25295
999.826	4.84521
1002.72	7.03136
1005.61	3.70949
1008.5	0.037275
1011.4	7.54942
1014.29	6.69012
1017.18	0.664907
1020.08	3.18517
1022.97	6.21848
1025.86	2.07721
1028.75	0.96056
1031.65	3.04701
1034.54	0.665678
1037.43	1.35048
1040.32	0.770807
1043.22	7.51241
1046.11	2.9498
1049	0.706402
1051.89	6.84182
1054.79	3.81248
1057.68	10.2126
1060.57	6.37028
1063.47	6.7679
1066.36	3.16349
1069.25	6.45247
1072.14	8.50786
1075.04	5.97489
1077.93	3.39167
1080.82	5.60902
1083.71	6.61252
1086.61	8.83816
1089.5	9.37112
1092.39	3.36748
1095.29	10.9002
1098.18	7.16499
1101.07	1.70014
1103.96	3.17921
1106.86	3.18063
1109.75	10.7764
1112.64	3.92163
1115.53	4.77175
1118.43	6.64666
1121.32	8.12369
1124.21	4.52039
1127.11	8.88973
1130	1.72589
1132.89	11.1447
1135.78	9.12858
1138.68	7.77974
1141.57	6.82263
1144.46	6.96692
1147.35	2.82313
1150.25	4.04201
1153.14	1.27393
1156.03	6.23232
1158.92	3.83558
1161.82	5.18257
1164.71	11.4269
1167.6	0.795727
1170.5	2.37567
1173.39	2.31562
1176.28	10.6678
1179.17	4.35715
1182.07	1.7149
1184.96	8.12935
1187.85	0.872084
1190.74	10.0296
1193.64	2.09132
1196.53	0.694706
1199.42	5.59858
1202.32	3.72418
1205.21	1.26936
1208.1	4.84116
1210.99	4.66729
1213.89	1.09737
1216.78	1.80407
1219.67	3.00935
1222.56	9.99957
1225.46	6.88734
1228.35	5.06093
1231.24	1.90227
1234.13	5.2122
1237.03	2.12062
1239.92	1.84268
1242.81	6.32817
1245.71	5.19216
1248.6	4.04178
1251.49	3.03616
1254.38	1.75582
1257.28	4.24241
1260.17	3.96407
1263.06	7.22529
1265.95	3.28155
1268.85	6.16288
1271.74	6.86633
1274.63	6.29779
1277.53	7.27835
1280.42	3.54519
1283.31	2.08482
1286.2	6.78707
1289.1	1.65012
1291.99	8.10983
1294.88	0.099709
1297.78	1.18637
1300.67	1.63993
