Measurement: Raman, 780 nm, unoriented, Raman Data Processed
Mineral: Monazite-(Ce)
Rruff sample: R120081
Ideal chemistry: CePO_4_
Locality: Hinman mine, Jefferson County, Colorado, USA
Source: Rudy Bolona
Description: Reddish-brown massive
Raman shift (cm-1)	intensity
99.3174	2685.07
102.692	2741.58
106.067	2843.36
109.442	2967.1
112.817	3076.98
116.192	3202.58
119.566	3348.87
122.941	3507.32
126.316	3671.16
129.691	3837.57
133.066	4016.05
136.44	4226.02
139.815	4442.98
143.19	4676.38
146.565	4924.99
149.94	5189.33
153.315	5477.75
156.689	5754.49
160.064	6065.11
163.439	6368.98
166.814	6669.11
170.189	6951.78
173.563	7231.11
176.938	7455.9
180.313	7668.04
183.688	7858.58
187.063	8037.13
190.437	8157.48
193.812	8284.32
197.187	8393.29
200.562	8495.11
203.937	8650.82
207.311	8860.21
210.686	9018.1
214.061	9261
217.436	9526.49
220.811	9780.78
224.186	10004.4
227.56	10166.4
230.935	10317
234.31	10534.2
237.685	10771.2
241.06	10961.9
244.435	11187.3
247.809	11451.6
251.184	11592.3
254.559	11695.8
257.934	11843.6
261.309	12046.8
264.683	12160.8
268.058	12338.2
271.433	12451.8
274.808	12677.7
278.183	12916.2
281.558	13206.5
284.932	13481.3
288.307	13825.9
291.682	14193.4
295.057	14343.5
298.432	14631
301.806	14873.7
305.181	15231.5
308.556	15566
311.931	15934.1
315.306	16267.8
318.68	16564.9
322.055	16842.8
325.43	17070.8
328.805	17313.4
332.18	17392.8
335.555	17553.5
338.929	17666.5
342.304	17648.5
345.679	17722.9
349.054	17747.2
352.429	17700.6
355.803	17674.1
359.178	17669.6
362.553	17673.7
365.928	17585.6
369.303	17672.6
372.678	17614.1
376.052	17546.3
379.427	17539.2
382.802	17559.8
386.177	17592.6
389.552	17614
392.926	17547.8
396.301	17616.5
399.676	17471
403.051	17424.1
406.426	17381.2
409.8	17177.8
413.175	17028.1
416.55	16889.8
419.925	16701.2
423.3	16598.1
426.675	16407.4
430.049	16310.9
433.424	16186.9
436.799	16051.4
440.174	15916.3
443.549	15804.5
446.923	15660.1
450.298	15508
453.673	15386.4
457.048	15214.5
460.423	15068.2
463.798	14885.6
467.172	14710.2
470.547	14565
473.922	14449.8
477.297	14232.5
480.672	14086
484.046	13922.2
487.421	13725.8
490.796	13594.4
494.171	13444.9
497.546	13315.9
500.921	13122.8
504.295	13027.3
507.67	12843.6
511.045	12734.6
514.42	12548.7
517.795	12400.6
521.169	12241
524.544	12114
527.919	11968.5
531.294	11802.4
534.669	11667.6
538.044	11505.1
541.418	11313.3
544.793	11126.5
548.168	10966.9
551.543	10800.9
554.918	10657.4
558.293	10464.6
561.667	10304.9
565.042	10139.8
568.417	9952.15
571.792	9781.25
575.167	9608.38
578.541	9475.02
581.916	9292.74
585.291	9139.6
588.666	8981.75
592.041	8877.19
595.415	8754.81
598.79	8624.29
602.165	8487.68
605.54	8369.83
608.915	8195.26
612.29	8086.05
615.664	7927.92
619.039	7798.39
622.414	7688.31
625.789	7550.45
629.164	7452.79
632.538	7309.8
635.913	7234.83
639.288	7130.94
642.663	7034.16
646.038	6933.14
649.413	6848.75
652.787	6767.04
656.162	6646.37
659.537	6558.24
662.912	6436.5
666.287	6360.18
669.661	6288.86
673.036	6188.38
676.411	6101.06
679.786	6024.12
683.161	5946.67
686.535	5876.67
689.91	5794.71
693.285	5745.41
696.66	5656.3
700.035	5645.76
703.41	5569.3
706.784	5514.17
710.159	5486.52
713.534	5412.96
716.909	5367.18
720.284	5293.79
723.659	5264.25
727.033	5231.17
730.408	5190.86
733.783	5164.34
737.158	5092.22
740.533	5048.53
743.907	4991.13
747.282	4974.34
750.657	4914.04
754.032	4844.3
757.407	4788.07
760.782	4704.18
764.156	4615.09
767.531	4573.95
770.906	4441.71
774.281	4350.71
777.656	4250.61
781.03	4155.05
784.405	4036.42
787.78	3928.16
791.155	3828.41
794.53	3762.51
797.904	3614.45
801.279	3505.06
804.654	3402.04
808.029	3302.93
811.404	3218.58
814.779	3120.17
818.153	3038.25
821.528	2961.99
824.903	2862.5
828.278	2796.34
831.653	2717.71
835.028	2636.24
838.402	2581.93
841.777	2516.03
845.152	2453.79
848.527	2396.04
851.902	2352.5
855.276	2284.65
858.651	2249.43
862.026	2206.22
865.401	2138.28
868.776	2108.92
872.15	2056.21
875.525	2019.53
878.9	1960.34
882.275	1920.39
885.65	1887.85
889.024	1848.03
892.399	1820.63
895.774	1794.48
899.149	1772.08
902.524	1742.22
905.899	1722.58
909.273	1717.79
912.648	1690.47
916.023	1672.42
919.398	1661.96
922.773	1659.81
926.148	1654.38
929.522	1633.49
932.897	1646.31
936.272	1631.73
939.647	1634.26
943.022	1636.93
946.396	1635.78
949.771	1636.97
953.146	1641.13
956.521	1655.7
959.896	1686.25
963.27	1700.55
966.645	1720.92
970.02	1752.71
973.395	1754.02
976.77	1727.91
980.145	1722.24
983.519	1719.48
986.894	1718.47
990.269	1738.31
993.644	1738.3
997.019	1761.59
1000.39	1795.55
1003.77	1807.49
1007.14	1837.68
1010.52	1877.85
1013.89	1909.55
1017.27	1962.02
1020.64	1982.07
1024.02	2027.13
1027.39	2094.21
1030.77	2153.35
1034.14	2211.69
1037.52	2296.28
1040.89	2355.02
1044.27	2433.21
1047.64	2509.26
1051.02	2603.16
1054.39	2705.3
1057.77	2815.48
1061.14	2928.51
1064.52	3049.16
1067.89	3190.39
1071.27	3307.75
1074.64	3456.02
1078.01	3595.29
1081.39	3774.44
1084.76	3944.87
1088.14	4139.7
1091.51	4344.86
1094.89	4544.48
1098.26	4746.01
1101.64	4964.78
1105.01	5192.68
1108.39	5468.54
1111.76	5717.99
1115.14	5938.98
1118.51	6236.97
1121.89	6529.93
1125.26	6838.19
1128.64	7165
1132.01	7523.4
1135.39	7894.16
1138.76	8314.01
1142.14	8701.06
1145.51	9186.58
1148.88	9680.04
1152.26	10211
1155.63	10801.9
1159.01	11364.1
1162.38	12044.8
1165.76	12769.5
1169.13	13591.6
1172.51	14398.3
1175.88	15286.5
1179.26	16244.9
1182.63	17253.1
1186.01	18284.1
1189.38	19388.9
1192.76	20615.6
1196.13	21930.4
1199.51	23054.9
1202.88	24347.2
1206.26	25605.7
1209.63	26892.8
1213.01	28114.5
1216.38	29241.1
1219.76	30229.5
1223.13	31123.7
1226.51	31840
1229.88	32155
1233.26	32424.8
1236.63	32467.1
1240.01	32179.8
1243.38	31994.7
1246.76	31640
1250.13	31170.1
1253.51	30722.1
1256.88	30419.2
1260.25	30210
1263.63	30097.7
1267	30001.8
1270.38	30113.5
1273.75	30409.2
1277.13	30799.3
1280.5	31315.4
1283.88	32104.2
