Measurement: Raman, 780 nm, unoriented, Raman Data Processed
Mineral: Monazite-(Ce)
Rruff sample: R120146
Ideal chemistry: CePO_4_
Locality: Zagi Mountain, Hameed Abad Kafoor Dheri, Peshawar, Khyber Pakhtunkhwa, Pakistan
Source: Ikram Mineralogy
Description: Brown bladed crystals
Measured chemistry: (Ce_0.47_La_0.23_Nd_0.19_Pr_0.05_Sm_0.03_Gd_0.01_Y_0.01_Eu_0.01_Th_0.01_)_∑=1.00_(P_0.98_Si_0.01_)_∑=0.99_O_4_
Raman shift (cm-1)	intensity
135.071	0
137.482	9.08447
139.893	2.66174
142.303	4.26013
144.714	15.0496
147.125	52.6569
149.535	82.8533
151.946	149.821
154.356	231.401
156.767	337.817
159.177	472.054
161.588	634.564
163.999	787.563
166.409	1005.59
168.82	1140.48
171.23	1295.46
173.641	1417.57
176.052	1519.44
178.462	1525.74
180.873	1459.44
183.283	1332.58
185.694	1205.91
188.104	1044.51
190.515	877.102
192.926	714.915
195.336	597.396
197.747	476.028
200.157	357.615
202.568	257.747
204.978	163.329
207.389	83.8811
209.8	33.6643
212.21	15.033
214.621	61.7456
217.031	40.5491
219.442	11.6582
221.853	5.85815
224.263	47.459
226.674	119.29
229.084	165.974
231.495	242.838
233.905	343.207
236.316	416.815
238.727	502.131
241.137	603.866
243.548	703.512
245.958	811.525
248.369	855.635
250.78	876.748
253.19	897.547
255.601	876.3
258.011	820.812
260.422	705.417
262.832	670.631
265.243	586.598
267.654	511.564
270.064	397.465
272.475	309.162
274.885	228.229
277.296	153.791
279.707	94.1309
282.117	77.2888
284.528	81.5137
286.938	145.66
289.349	233.073
291.76	347.62
294.17	496.754
296.581	699.585
298.991	859.232
301.402	1068.1
303.812	1258.78
306.223	1511.94
308.634	1651.67
311.044	1819.74
313.455	1871.99
315.865	1863.51
318.276	1835.23
320.687	1686.54
323.097	1506.3
325.508	1293.07
327.918	1035.39
330.329	801.614
332.739	585.16
335.15	391.92
337.561	221.167
339.971	84.8677
342.382	6.48682
344.792	46.5293
347.203	101.851
349.613	61.5952
352.024	25.8711
354.435	66.7783
356.845	201.335
359.256	344.079
361.666	553.791
364.077	767.849
366.488	1030.11
368.898	1316.64
371.309	1550.46
373.719	1822.61
376.13	2026.92
378.541	2190.73
380.951	2350.88
383.362	2401.69
385.772	2417.54
388.183	2425.42
390.593	2382.49
393.004	2291.02
395.415	2165.25
397.825	2025.98
400.236	1850.15
402.646	1699.62
405.057	1504.85
407.467	1321.51
409.878	1202.12
412.289	1099.47
414.699	988.924
417.11	882.858
419.52	759.009
421.931	664.706
424.342	611.29
426.752	549.473
429.163	500.656
431.573	495.203
433.984	455.116
436.394	430.537
438.805	433.376
441.216	387.356
443.626	385.728
446.037	346.798
448.447	356.8
450.858	323.213
453.269	317.828
455.679	294.758
458.09	271.556
460.5	255.026
462.911	233.108
465.322	231.541
467.732	191.766
470.143	150.034
472.553	66.1802
474.964	48.5571
477.375	1.86035
479.785	25.8247
482.196	16.498
484.606	38.0337
487.017	24.0361
489.427	32.7315
491.838	1.0957
494.248	10.2915
496.659	56.4185
499.07	98.7729
501.48	144.245
503.891	175.876
506.301	229.863
508.712	283.473
511.123	306.415
513.533	348.5
515.944	392.434
518.354	395.428
520.765	431.728
523.176	424.737
525.586	465.579
527.997	468.346
530.407	485.46
532.818	499.046
535.229	504.771
537.639	486.142
540.05	483.477
542.46	443.554
544.871	422.204
547.281	394.588
549.692	348.544
552.102	337.107
554.513	310.594
556.924	275.371
559.334	236.105
561.745	190.116
564.155	160.644
566.566	125.138
568.977	122.493
571.387	107.486
573.798	62.4761
576.208	42.6829
578.619	21.1987
581.029	8.9397
583.44	8.78711
585.851	1.87817
588.261	9.10327
590.672	0.625488
593.082	5.68433
595.493	1.64502
597.904	7.1272
600.314	13.5088
602.725	16.9028
605.135	43.708
607.546	54.8093
609.957	97.9148
612.367	119.935
614.778	168.874
617.188	222.074
619.599	277.309
622.01	272.382
624.42	258.487
626.831	254.92
629.241	262.247
631.652	278.914
634.062	292.51
636.473	294.671
638.884	306.743
641.294	292.993
643.705	280.115
646.115	289.7
648.526	261.076
650.937	234.989
653.347	234.694
655.758	208.685
658.168	202.481
660.579	181.171
662.989	169.688
665.4	144.887
667.811	142.278
670.221	142.83
672.632	112.888
675.042	109.533
677.453	106.355
679.864	83.1333
682.274	90.6363
684.685	68.3324
687.095	70.1587
689.506	61.2236
691.916	57.9563
694.327	68.7339
696.738	60.9032
699.148	40.3221
701.559	28.6935
703.969	33.2694
706.38	3.46802
708.79	10.7817
711.201	7.0155
713.612	10.9266
716.022	4.19311
718.433	19.8186
720.843	4.51599
723.254	5.62964
725.665	6.49841
728.075	9.12231
730.486	29.2487
732.896	44.7369
735.307	66.2517
737.717	86.3751
740.128	121.28
742.539	143.933
744.949	190.369
747.36	237.315
749.77	265.275
752.181	311.345
754.592	345.494
757.002	379.943
759.413	418.613
761.823	440.674
764.234	462.375
766.644	478.392
769.055	486.91
771.466	483.379
773.876	473.755
776.287	458.423
778.697	444.601
781.108	408.764
783.519	377.361
785.929	350.035
788.34	334.612
790.75	289.375
793.161	252.328
795.572	218.528
797.982	203.405
800.393	176.541
802.803	147.582
805.214	122.875
807.625	103.168
810.035	77.6877
812.446	65.4224
814.856	45.0289
817.267	27.707
819.677	20.1987
822.088	19.0875
824.499	9.45538
826.909	5.72473
829.32	1.71198
831.73	3.00256
834.141	0.354126
836.552	2.73047
838.962	0.464417
841.373	6.16284
843.783	8.44922
846.194	9.41479
848.604	0.281494
851.015	1.56335
853.426	0.352844
855.836	4.40564
858.247	6.16528
860.657	14.486
863.068	11.7678
865.479	15.1431
867.889	12.4562
870.3	25.6891
872.71	23.2618
875.121	25.2395
877.531	17.5673
879.942	22.9636
882.352	14.2828
884.763	15.7861
887.174	14.0313
889.584	19.9556
891.995	21.785
894.405	24.2914
896.816	25.1881
899.227	28.202
901.637	21.0939
904.048	10.5153
906.458	20.4947
908.869	20.317
911.279	24.3229
913.69	26.6556
916.101	30.0582
918.511	22.1979
920.922	40.6924
923.332	30.8669
925.743	48.5698
928.154	46.8273
930.564	54.4917
932.975	50.2422
935.385	54.125
937.796	54.9697
940.207	59.8539
942.617	63.6932
945.028	77.2989
947.438	89.1099
949.849	112.729
952.26	118.018
954.67	133.019
957.081	169.93
959.491	204.386
961.902	250.365
964.312	339.25
966.723	485.987
969.134	726.607
971.544	965.6
973.955	769.988
976.365	396.565
978.776	236.403
981.187	171.272
983.597	166.626
986.008	158.711
988.418	146.525
990.829	145.707
993.239	122.629
995.65	90.8707
998.061	63.8571
1000.47	44.895
1002.88	13.959
1005.29	5.6814
1007.7	1.29529
1010.11	9.43604
1012.52	8.45557
1014.93	15.1062
1017.35	10.3076
1019.76	29.7715
1022.17	30.8477
1024.58	68.1942
1026.99	74.1009
1029.4	81.6883
1031.81	82.7169
1034.22	80.7637
1036.63	77.9773
1039.04	48.7229
1041.45	41.123
1043.86	29.196
1046.27	32.9424
1048.68	34.8806
1051.09	30.1357
1053.5	61.4983
1055.91	85.0696
1058.33	55.8286
1060.74	3.68799
1063.15	7.66309
