Measurement: Raman, 532 nm, unoriented, Raman Data Processed
Mineral: Montmorillonite
Rruff sample: R110053
Ideal chemistry: (Na,Ca)_0.3_(Al,Mg)_2_Si_4_O_10_(OH)_2_nH_2_O
Locality: Chambers, Arizona, USA
Source: Ward's Natural Science Establishment, Inc.
Description: Tan colored consolidated powder
Raman shift (cm-1)	intensity
179.202	18633.9
182.094	19003.5
184.987	19413.3
187.88	19818.5
190.773	20356.8
193.665	20947.3
196.558	21419.6
199.451	21736.1
202.343	21888.6
205.236	22006.5
208.129	22102.1
211.021	22285.2
213.914	22453.7
216.807	22625.4
219.699	22758.9
222.592	22878.7
225.485	22966.9
228.377	23027.7
231.27	23156.4
234.163	23321.5
237.056	23412.9
239.948	23430.8
242.841	23449.9
245.734	23518.7
248.626	23653
251.519	23725.1
254.412	23780.4
257.305	23916.5
260.197	23974.8
263.09	24016
265.983	24060.5
268.875	24236.6
271.768	24336.4
274.661	24500.3
277.553	24531.2
280.446	24614.7
283.339	24594
286.232	24546.6
289.124	24631.2
292.017	24741.9
294.91	24849.6
297.802	24942.7
300.695	24962.4
303.588	25092.2
306.481	25121
309.373	25181.1
312.266	25221.3
315.159	25343.8
318.051	25470.9
320.944	25470.2
323.837	25489
326.729	25589.8
329.622	25562.2
332.515	25679.7
335.408	25810.9
338.3	25963.2
341.193	25943.6
344.086	25948.4
346.978	26012.4
349.871	26061.8
352.764	26182.9
355.656	26349.6
358.549	26403.3
361.442	26475.3
364.334	26480.5
367.227	26562.7
370.12	26642.9
373.012	26758.7
375.905	26753.3
378.798	26778.3
381.691	26870.8
384.583	26988.3
387.476	27035
390.369	27142.7
393.261	27095.3
396.154	27247
399.047	27347.6
401.94	27399.8
404.832	27502.3
407.725	27547.9
410.618	27698.2
413.51	27794.2
416.403	27818.6
419.296	27817.2
422.188	27878.5
425.081	27886.8
427.974	28051.6
430.866	28117.5
433.759	28145.8
436.652	28170.9
439.545	28222.5
442.437	28313.8
445.33	28385.1
448.223	28474
451.115	28456
454.008	28482
456.901	28575.3
459.793	28699.7
462.686	28708
465.579	28674.2
468.472	28673.4
471.364	28720.5
474.257	28827.8
477.15	28862.6
480.042	28968
482.935	28998.9
485.828	29086.9
488.721	29109.9
491.613	29203
494.506	29329
497.399	29385.9
500.291	29436.5
503.184	29443.8
506.077	29449.6
508.969	29578.1
511.862	29608.1
514.755	29629.7
517.648	29615.7
520.54	29644.4
523.433	29796.4
526.326	29944.8
529.218	30001.6
532.111	30016.3
535.004	30000.1
537.896	30034.3
540.789	30135.8
543.682	30190.8
546.575	30256.1
549.467	30392.2
552.36	30416.8
555.253	30434.8
558.145	30497.8
561.038	30512.5
563.931	30552.2
566.823	30601
569.716	30600.6
572.609	30620.6
575.502	30691.7
578.394	30836.4
581.287	30908.7
584.18	30925.5
587.072	31036.1
589.965	31032.3
592.858	31118.4
595.75	31188.9
598.643	31167.7
601.536	31183.7
604.428	31209.1
607.321	31225.8
610.214	31396.5
613.107	31427.8
615.999	31440.3
618.892	31498.7
621.785	31555.2
624.677	31534.5
627.57	31502.3
630.463	31596.5
633.356	31745.4
636.248	31797.3
639.141	31897.1
642.034	31835.2
644.926	31941.2
647.819	31968.2
650.712	31968.9
653.604	32085.3
656.497	32142.1
659.39	32208.5
662.283	32223
665.175	32185.2
668.068	32224.5
670.961	32293.9
673.853	32325.3
676.746	32394.9
679.639	32454
682.531	32628.6
685.424	32655.7
688.317	32665.7
691.21	32780.5
694.102	32880.2
696.995	32960.4
699.888	33079.2
702.78	33060.3
705.673	33141.1
708.566	33226.2
711.458	33273.3
714.351	33204.9
717.244	33032.8
720.136	32997.7
723.029	33080
725.922	33167.6
728.815	33271.1
731.707	33239.3
734.6	33253.7
737.493	33203.2
740.385	33218.2
743.278	33239.8
746.171	33252.2
749.063	33301.9
751.956	33461.5
754.849	33539.2
757.742	33561.3
760.634	33546.1
763.527	33566.2
766.42	33650.9
769.312	33664.5
772.205	33737.3
775.098	33785.2
777.99	33725.9
780.883	33879.3
783.776	33868.8
786.669	33909
789.561	33882.9
792.454	33999.4
795.347	34055.1
798.239	34035.5
801.132	33999.8
804.025	34038.2
806.918	34119.2
809.81	34224.7
812.703	34220.5
815.596	34330.6
818.488	34415.2
821.381	34523.7
824.274	34401
827.166	34363.1
830.059	34452
832.952	34487.8
835.845	34555.9
838.737	34482.8
841.63	34575.5
844.523	34627.1
847.415	34648.7
850.308	34680.6
853.201	34726.1
856.093	34784.5
858.986	34862.1
861.879	34934.3
864.771	34948.9
867.664	34876.5
870.557	34948
873.45	35057.9
876.342	35109.8
879.235	35067.1
882.128	35079.7
885.02	35186.5
887.913	35278.7
890.806	35322.3
893.698	35311
896.591	35302.2
899.484	35315.7
902.377	35379.7
905.269	35446.3
908.162	35577.8
911.055	35582.4
913.947	35608
916.84	35661.5
919.733	35650.7
922.625	35662
925.518	35735.1
928.411	35802.3
931.304	35787.1
934.196	35740.7
937.089	35694.8
939.982	35832
942.875	35919.6
945.767	35972.8
948.66	35948.7
951.553	35994.5
954.445	36045.3
957.338	36047.1
960.231	36022.4
963.123	36135.6
966.016	36224.6
968.909	36304.6
971.802	36160.2
974.694	36170.8
977.587	36259.2
980.48	36367.2
983.372	36352.3
986.265	36403.7
989.158	36450.8
992.05	36545.1
994.943	36598.6
997.836	36515.8
1000.73	36544.6
1003.62	36545.2
1006.51	36677.8
1009.41	36707.6
1012.3	36711.8
1015.19	36709.9
1018.09	36775
1020.98	36923.4
1023.87	37012.9
1026.76	36879.1
1029.66	36982.8
1032.55	37038.8
1035.44	37220.7
1038.33	37164
1041.23	37090.7
1044.12	37177.9
1047.01	37195.3
1049.9	37268.9
1052.8	37374.6
1055.69	37381.2
1058.58	37470.7
1061.47	37454
1064.37	37588
1067.26	37494.5
1070.15	37548.6
1073.05	37492.5
1075.94	37493.5
1078.83	37576.4
1081.72	37573.4
1084.62	37642.5
1087.51	37542.2
1090.4	37670.1
1093.3	37720.9
1096.19	37770.3
1099.08	37871.9
1101.97	37919.3
1104.87	37854.9
1107.76	37924.8
1110.65	38011.1
1113.54	38038
1116.44	38135.9
1119.33	38084.7
1122.22	38113
1125.12	38073.6
1128.01	38147.9
1130.9	38081.1
1133.79	38093.6
1136.68	38214.8
1139.58	38305
1142.47	38249.8
1145.36	38290.8
1148.26	38298.3
1151.15	38340.4
1154.04	38420.2
1156.93	38359.4
1159.83	38346.9
1162.72	38488.4
1165.61	38472.3
1168.51	38491.9
1171.4	38508.7
1174.29	38543.4
1177.18	38647.3
1180.08	38629.9
1182.97	38650.7
1185.86	38762.1
1188.75	38776.7
1191.65	38746.8
1194.54	38738.4
1197.43	38763.9
1200.33	38810.9
1203.22	38816.6
1206.11	38945.4
1209	39096.8
1211.9	39050.5
1214.79	39039.6
1217.68	38990.2
1220.57	38958.3
1223.47	38983.4
1226.36	39111.2
1229.25	39082.8
1232.14	39078.7
1235.04	38995
1237.93	38994.7
1240.82	39090.7
1243.71	39184.2
1246.61	39156.9
1249.5	39155.3
1252.39	39264.9
1255.29	39311.6
1258.18	39404.5
1261.07	39379.3
1263.96	39487.4
1266.86	39380.7
1269.75	39547.2
1272.64	39490.3
1275.54	39621.3
1278.43	39619.6
1281.32	39535
1284.21	39589.3
1287.11	39677.8
1290	39721.7
1292.89	39736.1
1295.78	39815.1
1298.68	39872.2
1301.57	39878.3
