Measurement: Raman, 532 nm, unoriented, Raman Data Processed
Mineral: Montmorillonite
Rruff sample: R110052
Ideal chemistry: (Na,Ca)_0.3_(Al,Mg)_2_Si_4_O_10_(OH)_2_nH_2_O
Locality: Santa Rita, New Mexico, USA
Source: Ward's Natural Science Establishment, Inc.
Description: Unconsolidated grains
Raman shift (cm-1)	intensity
179.202	36738.8
182.094	37622.8
184.987	38560.4
187.88	39249.5
190.773	39998.8
193.665	40628.2
196.558	41233.1
199.451	41760.9
202.343	42038.3
205.236	42242.3
208.129	42378.6
211.021	42559.6
213.914	42802
216.807	43009.2
219.699	43151.7
222.592	43470.8
225.485	43588.6
228.377	43738.5
231.27	43857.8
234.163	44122.8
237.056	44265.7
239.948	44248.4
242.841	44293
245.734	44441.8
248.626	44612.9
251.519	44765.4
254.412	44881.3
257.305	45045.5
260.197	45190.5
263.09	45265.4
265.983	45392.7
268.875	45633.1
271.768	45781.3
274.661	46021.2
277.553	46139.3
280.446	46253.3
283.339	46082.7
286.232	46075.4
289.124	46280.2
292.017	46419
294.91	46632.4
297.802	46688.3
300.695	46789.9
303.588	46958.2
306.481	47040.3
309.373	47129.7
312.266	47192.3
315.159	47365.4
318.051	47531.6
320.944	47475.6
323.837	47559.1
326.729	47627.2
329.622	47670.1
332.515	47808.3
335.408	48129.5
338.3	48224.9
341.193	48252
344.086	48264.2
346.978	48246
349.871	48399.8
352.764	48546.8
355.656	48808.2
358.549	48836.7
361.442	48897.5
364.334	48993.3
367.227	49094.6
370.12	49139.2
373.012	49319.2
375.905	49290.2
378.798	49354.5
381.691	49409.8
384.583	49637.3
387.476	49695.3
390.369	49823.9
393.261	49860.2
396.154	49982.6
399.047	50150
401.94	50214.2
404.832	50344.6
407.725	50493.9
410.618	50602.8
413.51	50758.1
416.403	50866.6
419.296	50756.1
422.188	50816.6
425.081	50903.8
427.974	51059
430.866	51229.1
433.759	51193.1
436.652	51152.3
439.545	51173.3
442.437	51398.4
445.33	51417.8
448.223	51533
451.115	51569.8
454.008	51584.1
456.901	51594.2
459.793	51855.5
462.686	51838.6
465.579	51823.8
468.472	51778.7
471.364	51771.8
474.257	51919
477.15	51936.1
480.042	52052.4
482.935	52164.8
485.828	52241.3
488.721	52280.3
491.613	52376
494.506	52494.5
497.399	52586.2
500.291	52641.1
503.184	52648.1
506.077	52627.3
508.969	52671.3
511.862	52764.5
514.755	52812.7
517.648	52717.2
520.54	52756.6
523.433	52978.1
526.326	53119.7
529.218	53214
532.111	53153.2
535.004	53126.1
537.896	53139.2
540.789	53182.9
543.682	53356.4
546.575	53356.5
549.467	53474.5
552.36	53521.6
555.253	53536.2
558.145	53468.9
561.038	53535.6
563.931	53558
566.823	53512.4
569.716	53544.5
572.609	53459.8
575.502	53609
578.394	53755.3
581.287	53888.4
584.18	53821
587.072	53952.6
589.965	53939.4
592.858	54016.5
595.75	53973.1
598.643	53933.9
601.536	53900.9
604.428	53850.1
607.321	53938.3
610.214	54062.4
613.107	54096.2
615.999	54059.9
618.892	54099.7
621.785	54130.3
624.677	54069.1
627.57	53976.7
630.463	54094.5
633.356	54238.7
636.248	54363.5
639.141	54366.4
642.034	54340.8
644.926	54371.2
647.819	54524.7
650.712	54419.3
653.604	54626.2
656.497	54702.8
659.39	54831.2
662.283	54820.1
665.175	54818.3
668.068	54800.8
670.961	54887.4
673.853	54995
676.746	55025.9
679.639	55130.8
682.531	55380.2
685.424	55401.9
688.317	55436.2
691.21	55586.4
694.102	55636.9
696.995	55764.2
699.888	55864.7
702.78	55865.1
705.673	55965.1
708.566	56165.9
711.458	56226.3
714.351	56013.1
717.244	55841.2
720.136	55711.1
723.029	55798.2
725.922	55969.6
728.815	56152.5
731.707	56074.6
734.6	56060.2
737.493	55989.9
740.385	56105.6
743.278	56067.7
746.171	56048.4
749.063	56112.7
751.956	56411.9
754.849	56476.6
757.742	56540.3
760.634	56482.4
763.527	56485.4
766.42	56568.2
769.312	56616.7
772.205	56592.2
775.098	56609.9
777.99	56673.4
780.883	56846.9
783.776	56842.6
786.669	56838.2
789.561	56812.9
792.454	56950.2
795.347	57013.1
798.239	56911.2
801.132	56920.3
804.025	56954.2
806.918	57071
809.81	57224.6
812.703	57220.8
815.596	57340.4
818.488	57431.3
821.381	57558.4
824.274	57470.4
827.166	57393.1
830.059	57444.2
832.952	57567.4
835.845	57608.5
838.737	57472.6
841.63	57633.9
844.523	57648.9
847.415	57709.5
850.308	57672.4
853.201	57772.1
856.093	57938
858.986	58004.3
861.879	58075.4
864.771	58072.7
867.664	57965.2
870.557	58126.6
873.45	58215.2
876.342	58300.4
879.235	58201.2
882.128	58230.9
885.02	58353.3
887.913	58522.2
890.806	58557.1
893.698	58509.4
896.591	58557.2
899.484	58554.5
902.377	58645
905.269	58760.6
908.162	58869.5
911.055	58965.3
913.947	58946.6
916.84	59033.8
919.733	59030.6
922.625	58989.4
925.518	59078.1
928.411	59151.4
931.304	59073.2
934.196	59005
937.089	58975.2
939.982	59193
942.875	59307.7
945.767	59351.1
948.66	59358.5
951.553	59364.5
954.445	59428.3
957.338	59353.9
960.231	59338.7
963.123	59474
966.016	59637.2
968.909	59741.4
971.802	59525.4
974.694	59531.5
977.587	59692.8
980.48	59909.5
983.372	59842
986.265	59837.3
989.158	59925.4
992.05	60035.8
994.943	60130.4
997.836	60100.9
1000.73	60115
1003.62	59967.7
1006.51	60212.8
1009.41	60242.5
1012.3	60318.2
1015.19	60246.8
1018.09	60353.7
1020.98	60615.6
1023.87	60680.2
1026.76	60557.3
1029.66	60582.6
1032.55	60735.2
1035.44	61014.6
1038.33	60926.5
1041.23	60836.8
1044.12	60898.1
1047.01	60939.3
1049.9	61015
1052.8	61141.4
1055.69	61245.2
1058.58	61355.4
1061.47	61280.9
1064.37	61499.4
1067.26	61370.8
1070.15	61479.7
1073.05	61415.1
1075.94	61427.7
1078.83	61423.5
1081.72	61457.3
1084.62	61557.3
1087.51	61491.1
1090.4	61562.8
1093.3	61726.2
1096.19	61737.8
1099.08	61920.6
1101.97	61925.9
1104.87	61976.5
1107.76	62005.8
1110.65	62151.4
1113.54	62197.1
1116.44	62284.2
1119.33	62284.1
1122.22	62302.3
1125.12	62261.7
1128.01	62394.2
1130.9	62146.3
1133.79	62271
1136.68	62525.6
1139.58	62603.6
1142.47	62617
1145.36	62500.3
1148.26	62646.9
1151.15	62616.3
1154.04	62724.8
1156.93	62746.5
1159.83	62693.9
1162.72	62767.7
1165.61	62899.6
1168.51	62900.3
1171.4	62955.1
1174.29	62956.3
1177.18	63036.8
1180.08	63084.7
1182.97	63067.4
1185.86	63262.6
1188.75	63283.1
1191.65	63230
1194.54	63268.8
1197.43	63256.8
1200.33	63335.4
1203.22	63297.2
1206.11	63613.8
1209	63696.9
1211.9	63736.4
1214.79	63713
1217.68	63606.8
1220.57	63531.1
1223.47	63613.6
1226.36	63790.3
1229.25	63665.4
1232.14	63682.3
1235.04	63624.7
1237.93	63652.1
1240.82	63724.3
1243.71	63923.5
1246.61	63850.1
1249.5	63892.4
1252.39	64048.6
1255.29	64040.4
1258.18	64134.1
1261.07	64170.3
1263.96	64385
1266.86	64247.9
1269.75	64370.8
1272.64	64348.5
1275.54	64602.8
1278.43	64582.4
1281.32	64434.6
1284.21	64547.1
1287.11	64654.7
1290	64703.2
1292.89	64729.3
1295.78	64870.7
1298.68	64988.4
1301.57	64867.3
