Measurement: Raman, 532 nm, unoriented, Raman Data Processed
Mineral: Moraesite
Rruff sample: R070480
Ideal chemistry: Be_2_PO_4_(OH)4H_2_O
Locality: Itinga, Minas Gerais, Brazil
Source: Bob Jenkins
Description: Unconsolidated colorless flat fragments
Raman shift (cm-1)	intensity
159.316	0
162.208	222.978
165.101	57.4873
167.994	151.424
170.886	226.776
173.779	275.615
176.672	298.93
179.565	109.333
182.457	131.283
185.35	138.762
188.243	10.3828
191.135	110.389
194.028	143.743
196.921	156.031
199.813	80.8291
202.706	198.434
205.599	100.823
208.492	106.919
211.384	53.4736
214.277	109.965
217.17	84.3037
220.062	81.7647
222.955	133.21
225.848	200.985
228.74	100.359
231.633	98.8135
234.526	161.216
237.418	14.6455
240.311	146.657
243.204	145.685
246.097	81.418
248.989	231.343
251.882	155.492
254.775	111.753
257.667	69.4326
260.56	113.513
263.453	61.7393
266.346	131.5
269.238	137.483
272.131	184.111
275.024	7.24414
277.916	29.5098
280.809	82.835
283.702	214.897
286.594	44.7988
289.487	192.827
292.38	64.1992
295.272	84.9209
298.165	83.9307
301.058	66.2656
303.951	6.50098
306.843	79.9307
309.736	10.3555
312.629	23.5752
315.521	115.332
318.414	120.352
321.307	140.457
324.2	341.805
327.092	437.039
329.985	304.988
332.878	245.387
335.77	186.791
338.663	217.381
341.556	137.389
344.448	64.4365
347.341	66.0547
350.234	100.784
353.127	165.859
356.019	242.573
358.912	165.482
361.805	146.851
364.697	338.166
367.59	483.672
370.483	554.143
373.375	791.865
376.268	751.423
379.161	554.96
382.053	397.718
384.946	108.674
387.839	80.8994
390.732	136.613
393.624	40.623
396.517	24.8291
399.41	57.7148
402.302	5.56445
405.195	51.5293
408.088	182.102
410.981	201.711
413.873	206.442
416.766	319.862
419.659	231.922
422.551	50
425.444	14.791
428.337	7.05469
431.229	74.2441
434.122	4.00977
437.015	96.7519
439.908	147.647
442.8	118.848
445.693	174.666
448.586	91.8906
451.478	102.728
454.371	243.984
457.264	369.877
460.156	309.998
463.049	255.185
465.942	209.619
468.834	388.662
471.727	371.824
474.62	296.848
477.513	239.168
480.405	301.391
483.298	402.598
486.191	277.955
489.083	203.01
491.976	166.371
494.869	195.434
497.762	55.4316
500.654	45.2383
503.547	53.7598
506.44	28.207
509.332	10.7344
512.225	126.125
515.118	6.66406
518.01	111.494
520.903	5.58594
523.796	73.2266
526.688	71.9629
529.581	107.598
532.474	247.445
535.367	271.75
538.259	169.211
541.152	311.512
544.045	332.865
546.937	285.609
549.83	414.057
552.723	358.147
555.615	416.283
558.508	202.584
561.401	223.037
564.294	177.76
567.186	283.904
570.079	366.369
572.972	369.984
575.864	375.299
578.757	418.322
581.65	377.502
584.543	426.781
587.435	279.934
590.328	278.359
593.221	268.432
596.113	241.981
599.006	143.268
601.899	178.211
604.791	234.418
607.684	155.238
610.577	64.7461
613.47	73.832
616.362	108.223
619.255	2.62891
622.148	5.17578
625.04	113.703
627.933	4.07617
630.826	51.7305
633.718	36.4922
636.611	70.6016
639.504	6.74023
642.396	112.49
645.289	65.8574
648.182	48.873
651.075	113.834
653.967	70.1934
656.86	157.94
659.753	139.022
662.645	193.004
665.538	142.758
668.431	241.176
671.323	213.006
674.216	257.834
677.109	221.74
680.002	177.029
682.894	228.178
685.787	230.742
688.68	209.596
691.572	297.506
694.465	247.1
697.358	252.523
700.25	284.234
703.143	314.164
706.036	265.215
708.929	212.025
711.821	162.328
714.714	89.3477
717.607	125.174
720.5	32.0938
723.392	19.4102
726.285	0.152344
729.178	163.086
732.07	184.486
734.963	83.0801
737.856	90.7734
740.748	57.9727
743.641	128.33
746.534	103.07
749.427	159.971
752.319	93.0918
755.212	128.455
758.105	203.644
760.997	230.535
763.89	73.8106
766.783	4.6875
769.675	109.357
772.568	52.5781
775.461	91.7793
778.354	121.682
781.246	150.211
784.139	232.717
787.032	144.49
789.924	220.617
792.817	170.195
795.71	22.4258
798.602	28.8203
801.495	154.445
804.388	141.092
807.28	130.4
810.173	127.973
813.066	120.758
815.959	34.7031
818.851	127.766
821.744	354.334
824.637	210.932
827.529	215.269
830.422	142.072
833.315	109.053
836.207	71.4688
839.1	88.3027
841.993	32.3574
844.886	108.853
847.778	161.682
850.671	115.953
853.564	48.8281
856.456	24.8789
859.349	167.17
862.242	243.594
865.135	273.529
868.027	147.59
870.92	199.953
873.813	95.418
876.705	164.248
879.598	249.285
882.491	226.869
885.383	217.859
888.276	126.734
891.169	167.711
894.062	309.84
896.954	86.6231
899.847	39.6797
902.74	77.2227
905.632	149.152
908.525	208.394
911.418	183.406
914.31	121.635
917.203	104.523
920.096	33.5234
922.989	75.9043
925.881	169.178
928.774	150.6
931.667	139.986
934.559	106.467
937.452	159.432
940.345	5.22461
943.237	69.0371
946.13	131.195
949.023	82.1309
951.915	17.1777
954.808	2.83594
957.701	69.1777
960.594	74.1426
963.486	144.846
966.379	90.9023
969.272	57.7324
972.164	107.061
975.057	110.822
977.95	113.072
980.842	91.4004
983.735	31.4805
986.628	20.7461
989.521	88.8691
992.413	13.8301
995.306	35.6895
998.199	58.4043
1001.09	164.055
1003.98	60.4941
1006.88	88.9121
1009.77	49.7812
1012.66	281.225
1015.55	241.045
1018.45	325
1021.34	316.393
1024.23	394.693
1027.13	509.098
1030.02	631.83
1032.91	523.137
1035.8	331.549
1038.7	91.3926
1041.59	150.375
1044.48	129.641
1047.38	37.4746
1050.27	76.6289
1053.16	88.4062
1056.05	23.0332
1058.94	72.9473
1061.84	157.201
1064.73	171.529
1067.62	197.107
1070.52	160.719
1073.41	213.693
1076.3	157.228
1079.19	154.506
1082.09	259.6
1084.98	271.344
1087.87	211.275
1090.77	97.7852
1093.66	125.518
1096.55	106.051
1099.44	229.58
1102.34	200.373
1105.23	134.473
1108.12	60.6816
1111.01	42.0898
1113.91	234.262
1116.8	168.713
1119.69	36.2305
1122.59	26.2754
1125.48	64.0723
1128.37	45.373
1131.26	66.707
1134.16	75.8457
1137.05	0.71875
1139.94	63.5469
1142.83	135.133
1145.73	199.225
1148.62	67.3613
1151.51	118.91
1154.4	115.422
1157.3	167.84
1160.19	88.3594
1163.08	2.82422
1165.97	31.332
1168.87	46.2793
1171.76	111.117
1174.65	207.647
1177.55	139.977
1180.44	158.607
1183.33	190.631
1186.22	246.584
1189.12	195.527
1192.01	140.713
1194.9	108.301
1197.8	148.07
1200.69	69.4785
1203.58	158.291
1206.47	53.4961
1209.37	19.1133
1212.26	28.2266
1215.15	90.3945
1218.04	213.566
1220.94	289.609
1223.83	279.568
1226.72	246.312
1229.62	84.0117
1232.51	34.4102
1235.4	77.7402
1238.29	99.6211
1241.19	168.607
1244.08	29.5762
1246.97	84.7441
1249.86	80.707
1252.76	167.576
1255.65	44.3984
1258.54	9.83008
1261.43	166.967
1264.33	154.975
1267.22	81.8438
1270.11	19.9355
