Measurement: Raman, 532 nm, unoriented, Raman Data Processed
Mineral: Mordenite
Rruff sample: R070524
Ideal chemistry: (Na_2_,Ca,K_2_)_4_(Al_8_Si_40_)O_96_28H_2_O
Locality: Calapooya River, near Dollar, Linn County, Oregon, USA
Source: James Shigley
Description: Aggregates of fine white fibers
Measured chemistry: (Na_3.08_Ca_2.37_K_0.15_)_Σ=5.60_(Al_7.97_Si_40.03_)O_96_·22H_2_O; H_2_O estimated by difference
Raman shift (cm-1)	intensity
158.833	0
161.726	74.8457
164.619	25.4121
167.512	31.0029
170.404	64.9438
173.297	15.1826
176.19	120.407
179.082	91.8096
181.975	7.79639
184.868	106.935
187.761	66.4238
190.653	125.36
193.546	24.7564
196.439	17.7036
199.331	56.5703
202.224	61.2446
205.117	131.069
208.009	70.606
210.902	33.7935
213.795	36.6206
216.688	45.1514
219.58	63.4712
222.473	80.5967
225.366	120.144
228.258	65.437
231.151	67.7602
234.044	83.4663
236.936	2.9707
239.829	24.4673
242.722	68.375
245.614	73.355
248.507	54.4253
251.4	36.9844
254.293	37.5996
257.185	59.4351
260.078	102.797
262.971	82.7451
265.863	6.53857
268.756	22.8384
271.649	1.48535
274.541	27.5845
277.434	38.3623
280.327	36.9282
283.22	38.1997
286.112	80.29
289.005	24.916
291.898	36.2812
294.79	6.73779
297.683	45.5669
300.576	85.3433
303.469	23.731
306.361	33.2393
309.254	32.2105
312.147	71.5171
315.039	70.8208
317.932	75.6577
320.825	91.1397
323.717	52.4688
326.61	130.831
329.503	57.6816
332.396	25.5254
335.288	8.03906
338.181	46.6421
341.074	59.1377
343.966	41.5908
346.859	16.8555
349.752	30.5151
352.644	26.0254
355.537	107.317
358.43	10.0889
361.322	38.0928
364.215	0.653809
367.108	6.87988
370.001	45.0649
372.893	3.77637
375.786	124.449
378.679	118.415
381.572	156.391
384.464	176.679
387.357	204.325
390.25	217.447
393.142	319.861
396.035	270.374
398.928	182.665
401.82	262.817
404.713	241.62
407.606	219.314
410.498	109.195
413.391	131.455
416.284	116.134
419.177	95.731
422.069	112.374
424.962	72.8555
427.855	126.179
430.747	54.978
433.64	137.092
436.533	190.282
439.425	121.367
442.318	129.002
445.211	68.6299
448.104	86.1514
450.996	67.3115
453.889	142.296
456.782	165.151
459.674	204.998
462.567	176.163
465.46	237.654
468.353	221.148
471.245	289.059
474.138	174.362
477.031	134.493
479.923	192.506
482.816	118.537
485.709	65.8281
488.601	49.7461
491.494	98.4746
494.387	12.458
497.279	47.2471
500.172	5.30273
503.065	45.6338
505.958	30.9492
508.85	16.1582
511.743	88.9834
514.636	151.352
517.528	30.6982
520.421	65.2773
523.314	75.0537
526.207	33.9287
529.099	77.6699
531.992	140.484
534.885	135.596
537.777	111.339
540.67	146.808
543.563	178.554
546.455	126.513
549.348	190.715
552.241	48.3682
555.134	72.626
558.026	123.794
560.919	61.3447
563.812	54.7832
566.704	10.2754
569.597	82.9853
572.49	172.603
575.382	124.599
578.275	104.899
581.168	48.8799
584.061	8.56738
586.953	54.9678
589.846	16.8428
592.739	52.3848
595.631	61.9268
598.524	60.2568
601.417	104.933
604.309	112.681
607.202	118.903
610.095	89.7285
612.987	53.0283
615.88	32.8613
618.773	45.6855
621.666	9.38672
624.558	109.992
627.451	19.9258
630.344	52.9111
633.236	3.54688
636.129	17.7236
639.022	66.5195
641.915	39.001
644.807	59.958
647.7	49.0176
650.593	55.1807
653.485	33.5801
656.378	39.7139
659.271	68.6553
662.163	16.1328
665.056	104.294
667.949	111.787
670.842	89.04
673.734	56.7676
676.627	89.3213
679.52	73.2881
682.412	101.892
685.305	42.0615
688.198	93.1787
691.091	117.677
693.983	113.696
696.876	98.2314
699.769	101.544
702.661	69.2568
705.554	114.686
708.447	27.0156
711.339	1.80859
714.232	35.5928
717.125	91.168
720.018	66.8359
722.91	0.795898
725.803	52.9424
728.696	52.6758
731.588	82.5986
734.481	32.2559
737.374	45.5772
740.266	67.7197
743.159	61.96
746.052	113.299
748.944	73.6494
751.837	51.6504
754.73	35.0068
757.623	44.6182
760.515	125.656
763.408	38.5986
766.301	65.1289
769.193	51.3603
772.086	78.6982
774.979	28.7715
777.871	53.2119
780.764	5.10938
783.657	52.6562
786.55	118.997
789.442	108.756
792.335	73.7852
795.228	26.1348
798.12	78.6914
801.013	86.2061
803.906	64.3438
806.798	53.3906
809.691	101.993
812.584	152.338
815.477	98.2022
818.369	29.3311
821.262	25.0684
824.155	33.2637
827.047	83.2549
829.94	29.2295
832.833	14.6543
835.726	35.1973
838.618	10.7539
841.511	65.5459
844.404	72.3477
847.296	26.6904
850.189	128.34
853.082	76.2715
855.975	10.7559
858.867	74.9141
861.76	60.3516
864.653	130.768
867.545	113.501
870.438	53.459
873.331	76.8076
876.223	123.404
879.116	117.096
882.009	141.633
884.902	40.8603
887.794	101.057
890.687	60.1318
893.58	156.935
896.472	46.7549
899.365	19.7354
902.258	25.2012
905.15	132.481
908.043	84.4228
910.936	68.1846
913.828	74.6689
916.721	46.2148
919.614	52.9922
922.507	32.6758
925.399	113.419
928.292	15.5498
931.185	46.7275
934.077	79.709
936.97	88.6064
939.863	23.3877
942.755	41.96
945.648	76.8164
948.541	28.1934
951.434	23.502
954.326	36.0967
957.219	35.208
960.112	36.1182
963.004	116.087
965.897	113.121
968.79	20.0371
971.683	18.4121
974.575	33.1328
977.468	3.31348
980.361	58.0967
983.253	27.9102
986.146	25.6172
989.039	70.0518
991.931	122.783
994.824	47.9775
997.717	65.1846
1000.61	31.4775
1003.5	101.86
1006.39	44.0068
1009.29	74.2285
1012.18	137.018
1015.07	60.5283
1017.97	94.7022
1020.86	20.4756
1023.75	16.5557
1026.64	45.8154
1029.54	132.299
1032.43	138.024
1035.32	35.0527
1038.21	63.2959
1041.11	27.2686
1044	4.1416
1046.89	4.40723
1049.79	72.3154
1052.68	23.4375
1055.57	121.652
1058.46	10.0127
1061.36	21.4268
1064.25	119.917
1067.14	61.6357
1070.03	151.17
1072.93	138.978
1075.82	64.2676
1078.71	64.9453
1081.61	77.6523
1084.5	52.1787
1087.39	109.028
1090.28	52.4053
1093.18	50.9932
1096.07	102.064
1098.96	82.8906
1101.85	102.217
1104.75	20.6641
1107.64	35.8877
1110.53	2.2334
1113.42	96.4297
1116.32	67.0752
1119.21	103.315
1122.1	9.4707
1125	16.6836
1127.89	45.3174
1130.78	46.1719
1133.67	97.8223
1136.57	87.5488
1139.46	43.1211
1142.35	35.9092
1145.24	141.211
1148.14	34.4297
1151.03	86.5762
1153.92	111.436
1156.82	33.0322
1159.71	86.6074
1162.6	7.77539
1165.49	29.8076
1168.39	62.7793
1171.28	75.4209
1174.17	111.849
1177.06	61.0088
1179.96	92.2481
1182.85	115.016
1185.74	129.914
1188.63	160.88
1191.53	103.853
1194.42	82.0293
1197.31	113.573
1200.21	130.41
1203.1	58.0049
1205.99	21.8574
1208.88	95.7481
1211.78	43.7891
1214.67	50.1143
1217.56	143.564
1220.45	255.796
1223.35	161.571
1226.24	97.8223
1229.13	12.1514
1232.03	46.957
1234.92	0.803711
1237.81	14.5039
1240.7	81.1133
1243.6	17.8535
1246.49	47.6475
1249.38	62.124
1252.28	2.74805
1255.17	3.69141
1258.06	96.6191
1260.95	69.5596
1263.85	61.3008
1266.74	72.3535
1269.63	65.9883
1272.52	53.3477
1275.42	60.5185
1278.31	38.7647
1281.2	24.1631
1284.09	28.8047
1286.99	26.3574
1289.88	101.917
1292.77	0.359375
