Measurement: Raman, 780 nm, unoriented, Raman Data RAW
Mineral: Mosandrite-(Ce)
Rruff sample: R100097
Ideal chemistry: (Ca_3_Ce^3+^)[(H_2_O)_2_Ca_0.5_[box]_0.5_]Ti^4+^(Si_2_O_7_)_2_(OH)_2_(H_2_O)_2_
Locality: Granite Mountain #2 Quarry, Arkansas, USA
Source: Henry Barwood
Description: Isolated yellowish-brown prismatic crystals in feldspar, associated with dark-green epidote, dark-brown astrophyllite, colorless fluorapatite, pinkish fluorite, and pale yellow monazite.
Raman shift (cm-1)	intensity
91.5332	19396.3
94.908	20276
98.2828	20387.2
101.658	20467.4
105.032	20937.2
108.407	21489.3
111.782	22071.6
115.157	22447.8
118.532	22731.5
121.907	23570.8
125.281	23594.1
128.656	23631.7
132.031	23731.2
135.406	23866.6
138.781	24096.3
142.155	24272.3
145.53	24777.1
148.905	25389.5
152.28	26309.8
155.655	27597.3
159.03	29126.3
162.404	30976.5
165.779	33121.4
169.154	35379.1
172.529	37855.9
175.904	40337.3
179.278	42954.8
182.653	45459.6
186.028	47709.7
189.403	49610.2
192.778	50804.8
196.153	51631.8
199.527	51898.3
202.902	51730.9
206.277	51182.4
209.652	50553.2
213.027	50071.7
216.401	49602
219.776	49490
223.151	49768.6
226.526	50603.2
229.901	51598.2
233.275	53158.3
236.65	54767.2
240.025	56782.3
243.4	58528.8
246.775	60180.1
250.15	61526.2
253.524	62191
256.899	62504.9
260.274	62705.1
263.649	62559.4
267.024	62358.5
270.399	62082.5
273.773	61722.4
277.148	61779.2
280.523	62020.5
283.898	63136.2
287.273	64099.5
290.647	66380.8
294.022	68398.4
297.397	71141.4
300.772	73714.4
304.147	76517.5
307.522	79204.7
310.896	81057.3
314.271	82539.2
317.646	83349.7
321.021	83392.1
324.396	83181.6
327.77	82524.8
331.145	81838.8
334.52	82145.2
337.895	83022.3
341.27	84742
344.644	87662.1
348.019	92462.8
351.394	98332.2
354.769	106100
358.144	115753
361.519	125784
364.893	136792
368.268	147298
371.643	157034
375.018	164189
378.393	168699
381.767	171251
385.142	171474
388.517	171720
391.892	171670
395.267	172610
398.642	172926
402.016	172778
405.391	170725
408.766	166442
412.141	159047
415.516	150163
418.89	139868
422.265	130942
425.64	123254
429.015	117348
432.39	112994
435.765	109973
439.139	107371
442.514	105503
445.889	103094
449.264	100311
452.639	97558.2
456.014	95035.8
459.388	92838.8
462.763	91082.2
466.138	90362.4
469.513	90305.9
472.887	90703.4
476.262	92380.3
479.637	93524.6
483.012	94902.3
486.387	95669.2
489.762	96053.5
493.136	95669.2
496.511	94381.5
499.886	92337.2
503.261	89407.9
506.636	86208.2
510.01	82567.6
513.385	78883.2
516.76	75140.5
520.135	71598.9
523.51	68221.9
526.885	65267.2
530.259	62805.5
533.634	60308.6
537.009	58073.7
540.384	56163.3
543.759	54330.3
547.134	52959.5
550.508	51636.3
553.883	50565.5
557.258	49503.9
560.633	48670.1
564.008	47762.2
567.382	46818.6
570.757	46198.4
574.132	45609.1
577.507	45006.4
580.882	44534.1
584.256	43829.6
587.631	43538.5
591.006	42843.2
594.381	42233.6
597.756	41875
601.131	41396.8
604.505	40919.1
607.88	40204.5
611.255	39487.2
614.63	38720.8
618.005	38063.8
621.38	37183.9
624.754	36574
628.129	35678.6
631.504	34933.3
634.879	34300.1
638.254	33621.2
641.628	33085.1
645.003	32403
648.378	31745.5
651.753	31318.7
655.128	30737.8
658.503	30434.7
661.877	30063.2
665.252	29708.1
668.627	29287.6
672.002	28773.9
675.377	28380
678.751	28008.9
682.126	27636.2
685.501	27260.2
688.876	26905.8
692.251	26680.4
695.625	26370.3
699	26013.6
702.375	25809.7
705.75	25555
709.125	25283.2
712.5	24968.6
715.874	24836.7
719.249	24532.8
722.624	24385.6
725.999	24203.1
729.374	24175.7
732.749	24037.6
736.123	24079.8
739.498	24208
742.873	24165.5
746.248	24284.3
749.623	24410.2
752.997	24438.5
756.372	24486
759.747	24400.3
763.122	24443.7
766.497	24584.8
769.871	24668.4
773.246	24576.5
776.621	24900.5
779.996	25135.5
783.371	25413.2
786.745	25815.2
790.12	26301
793.495	26879.4
796.87	27435
800.245	28031.5
803.62	28676.8
806.994	29388.6
810.369	29818.6
813.744	30431.3
817.119	31220.5
820.494	31997.2
823.869	32589.8
827.243	33356.2
830.618	34056.5
833.993	34384.9
837.368	34538.1
840.743	34181.5
844.117	33294.6
847.492	32141
850.867	30538.7
854.242	29062.8
857.617	27564.4
860.991	26403.6
864.366	25200.5
867.741	24446.1
871.116	23935.3
874.491	23688
877.866	23776
881.24	23637
884.615	23727.3
887.99	23921.1
891.365	23992.9
894.74	24090.5
898.115	24100
901.489	24012.3
904.864	23990.7
908.239	23841.4
911.614	23995
914.989	24122
918.363	24441.4
921.738	24772.6
925.113	25350.2
928.488	26179.9
931.863	26980.1
935.237	27921.6
938.612	28743.6
941.987	29903.9
945.362	30594.2
948.737	31114.4
952.112	31568.8
955.486	31752
958.861	31860.9
962.236	31820.9
965.611	31592.3
968.986	31564.8
972.361	31405
975.735	31176.3
979.11	31206.5
982.485	31501
985.86	31746.6
989.235	32475.8
992.609	33312.5
995.984	34626
999.359	35892.2
1002.73	37243.5
1006.11	39020.2
1009.48	40582.7
1012.86	42489.3
1016.23	44069.8
1019.61	45667.6
1022.98	46924.2
1026.36	48174.6
1029.73	49187.9
1033.11	50188.6
1036.48	50899.7
1039.86	51573.3
1043.23	52325
1046.61	53230.4
1049.98	53747.7
1053.36	54582.3
1056.73	55622.3
1060.11	56384.4
1063.48	57804.8
1066.86	59013.9
1070.23	60588.2
1073.61	62085.6
1076.98	63879.1
1080.36	65596.6
1083.73	67572.7
1087.1	70020
1090.48	72169.5
1093.85	74953.2
1097.23	77380.5
1100.6	80731.4
1103.98	83790.7
1107.35	87172.4
1110.73	90899.8
1114.1	94269.7
1117.48	98421.6
1120.85	103073
1124.23	107933
1127.6	112778
1130.98	117318
1134.35	123340
1137.73	129311
1141.1	135449
1144.48	142012
1147.85	148954
1151.23	156271
1154.6	164214
1157.97	172936
1161.35	182402
1164.72	192454
1168.1	203687
1171.47	215925
1174.85	229690
1178.22	244380
1181.6	260685
1184.97	278695
1188.35	298554
1191.72	322230
1195.1	347270
1198.47	374570
1201.85	405736
1205.22	439056
1208.6	476278
1211.97	516123
1215.35	557710
1218.72	599894
1222.1	643156
1225.47	689218
1228.85	735657
1232.22	780027
1235.6	823516
1238.97	859957
1242.35	895378
1245.72	927080
1249.1	953573
1252.47	975264
1255.85	990188
1259.22	998324
1262.6	999566
1265.97	993582
1269.34	983357
1272.72	972988
1276.09	959284
1279.47	949751
1282.84	945634
