Measurement: Raman, 785 nm, unoriented, Raman Data Processed
Mineral: Mottramite
Rruff sample: R050517
Ideal chemistry: Pb^2+^Cu^2+^V^5+^O_4_(OH)
Locality: Tsumeb mine, Tsumeb, Otavi District, Oshikoto, Namibia
Source: University of Arizona Mineral Museum
Description: Coating of green prismatic crystals
Measured chemistry: Pb_1.00_Cu_1.00_((V_0.88_As_0.12_)_Î£=1_O_4_)(OH)
Raman shift (cm-1)	intensity
132.006	0
134.899	1.85132
137.792	71.4973
140.684	242.772
143.577	530.996
146.47	785.877
149.362	914.498
152.255	826.76
155.148	730.706
158.041	761.148
160.933	923.548
163.826	931.12
166.719	822.901
169.611	704.939
172.504	613.832
175.397	563.563
178.289	486.798
181.182	504.832
184.075	479.936
186.968	485.312
189.86	478.249
192.753	421.701
195.646	369.705
198.538	370.574
201.431	291.787
204.324	198.383
207.216	174.801
210.109	137.056
213.002	87.5338
215.894	93.4735
218.787	108.391
221.68	71.5043
224.573	18.2623
227.465	12.9387
230.358	24.8026
233.251	47.8329
236.143	30.5824
239.036	16.8588
241.929	4.17334
244.821	14.7212
247.714	39.8987
250.607	37.8738
253.5	64.0845
256.392	78.2964
259.285	103.411
262.178	191.781
265.07	280.358
267.963	341.706
270.856	477.073
273.748	562.481
276.641	743.203
279.534	875.573
282.427	992.412
285.319	1075.53
288.212	1104.02
291.105	1049.07
293.997	1067.43
296.89	1052.28
299.783	1099.54
302.675	1234.8
305.568	1259.36
308.461	1350.89
311.354	1443.83
314.246	1462.33
317.139	1548.81
320.032	1486.74
322.924	1465.85
325.817	1377.76
328.71	1285.96
331.603	1172.97
334.495	1131.38
337.388	1053.44
340.281	1043.19
343.173	947.25
346.066	895.869
348.959	839.53
351.851	649.269
354.744	483.087
357.637	362.987
360.529	240.343
363.422	151.025
366.315	51.7499
369.208	39.4409
372.1	1.00867
374.993	11.7053
377.886	21.9281
380.778	2.40833
383.671	10.1309
386.564	53.1433
389.457	91.0786
392.349	118.681
395.242	137.503
398.135	77.2883
401.027	93.3806
403.92	53.1337
406.813	5.66479
409.705	5.72803
412.598	13.5739
415.491	6.55786
418.384	12.3868
421.276	27.4474
424.169	22.129
427.062	5.35229
429.954	11.5883
432.847	7.65955
435.74	3.34155
438.632	4.19385
441.525	14.4462
444.418	8.91077
447.31	8.31287
450.203	0.221436
453.096	33.3622
455.989	24.7338
458.881	31.2701
461.774	36.2401
464.667	28.0657
467.559	61.3621
470.452	14.2041
473.345	70.532
476.238	61.4055
479.13	26.1057
482.023	63.3467
484.916	66.1916
487.808	41.359
490.701	63.4571
493.594	41.2087
496.486	49.3691
499.379	68.5671
502.272	52.9545
505.164	37.4136
508.057	37.9624
510.95	48.1862
513.843	42.0736
516.735	32.1599
519.628	31.6679
522.521	44.967
525.413	18.4247
528.306	25.5404
531.199	33.5142
534.091	36.7153
536.984	44.3713
539.877	1.75171
542.77	16.4304
545.662	23.9086
548.555	28.8186
551.448	33.0985
554.34	29.1965
557.233	27.5831
560.126	13.2738
563.019	0.729614
565.911	20.3384
568.804	19.567
571.697	30.8033
574.589	32.5028
577.482	49.6027
580.375	21.3558
583.267	39.3676
586.16	41.0422
589.053	40.4253
591.946	32.7736
594.838	40.6864
597.731	19.8337
600.624	41.1903
603.516	22.446
606.409	15.8157
609.302	2.2854
612.194	13.9426
615.087	22.5689
617.98	11.9642
620.872	17.1462
623.765	24.3536
626.658	2.83057
629.551	20.4613
632.443	8.0669
635.336	1.45581
638.229	7.07288
641.121	11.297
644.014	9.94849
646.907	6.6012
649.799	22.2218
652.692	6.80444
655.585	44.093
658.478	39.0519
661.37	29.8718
664.263	25.5702
667.156	35.7082
670.048	77.2666
672.941	40.8235
675.834	60.9
678.726	73.9852
681.619	70.3501
684.512	53.3964
687.405	48.1315
690.297	77.6276
693.19	70.7237
696.083	35.7623
698.975	57.5317
701.868	46.5199
704.761	45.8494
707.654	18.9916
710.546	1.88061
713.439	22.675
716.332	16.8046
719.224	13.9518
722.117	11.7028
725.01	21.0679
727.902	8.40588
730.795	0.56958
733.688	7.16907
736.581	0.442627
739.473	9.04089
742.366	18.85
745.259	6.82483
748.151	8.36646
751.044	44.7892
753.937	39.2699
756.829	106.437
759.722	131.536
762.615	182.464
765.508	212.421
768.4	286.038
771.293	390.993
774.186	428.972
777.078	487.095
779.971	612.923
782.864	693.095
785.756	766.531
788.649	869.315
791.542	988.681
794.434	1097.84
797.327	1264.49
800.22	1446.53
803.113	1735.95
806.005	2083.62
808.898	2406.56
811.791	2669.09
814.683	2877.52
817.576	2859.29
820.469	2605.84
823.361	2264.52
826.254	1859.24
829.147	1503.3
832.04	1210.7
834.932	977.034
837.825	791.398
840.718	645.646
843.61	541.189
846.503	465.549
849.396	343.094
852.288	330.899
855.181	294.495
858.074	212.248
860.967	213.028
863.859	170.101
866.752	128.979
869.645	108.833
872.537	81.3386
875.43	72.708
878.323	77.3602
881.216	57.0739
884.108	16.4431
887.001	42.3625
889.894	20.3165
892.786	15.2404
895.679	10.0229
898.572	16.733
901.464	1.91675
904.357	8.67981
907.25	12.8898
910.143	12.8922
913.035	2.16028
915.928	0.551514
918.821	8.70984
921.713	10.9395
924.606	1.85571
927.499	1.96008
930.391	34.4701
933.284	28.3523
936.177	10.0901
939.069	44.368
941.962	21.2366
944.855	38.3842
947.748	55.7146
950.64	50.7152
953.533	50.6598
956.426	48.0938
959.318	47.9855
962.211	54.532
965.104	27.3254
967.996	48.3748
970.889	26.0707
973.782	32.4487
976.675	51.1741
979.567	25.891
982.46	42.2963
985.353	34.89
988.245	16.9143
991.138	50.5356
994.031	23.1178
996.923	8.23767
999.816	33.3406
1002.71	43.0057
1005.6	26.5862
1008.49	23.5977
1011.39	5.2345
1014.28	23.1908
1017.17	29.0454
1020.07	54.412
1022.96	35.8035
1025.85	20.5092
1028.74	22.2052
1031.64	35.8031
1034.53	24.2248
1037.42	35.3163
1040.31	1.45032
1043.21	15.1088
1046.1	12.9327
1048.99	28.3146
1051.88	38.0743
1054.78	25.5135
1057.67	33.2927
1060.56	30.5637
1063.46	30.5167
1066.35	34.0752
1069.24	3.1875
1072.13	26.3208
1075.03	15.4113
1077.92	17.5112
1080.81	13.7568
1083.7	21.334
1086.6	10.7455
1089.49	36.3009
1092.38	26.8771
1095.28	29.2914
1098.17	14.8114
1101.06	8.00696
1103.95	12.0287
1106.85	15.038
1109.74	6.78979
1112.63	37.7786
1115.52	2.43848
1118.42	26.6908
1121.31	5.22156
1124.2	15.6255
1127.1	20.1073
1129.99	31.319
1132.88	21.0524
1135.77	13.4946
1138.67	16.1401
1141.56	33.1398
1144.45	27.5486
1147.34	42.5721
1150.24	21.9127
1153.13	8.33472
1156.02	12.6595
1158.91	6.55444
1161.81	28.8072
1164.7	9.44104
1167.59	30.9132
1170.48	11.2118
1173.38	31.7396
1176.27	7.13647
1179.16	24.8411
1182.06	17.6373
1184.95	14.7117
1187.84	49.4877
1190.73	16.1406
1193.63	18.7492
1196.52	43.5382
1199.41	15.1853
1202.31	13.3883
1205.2	44.3429
1208.09	9.24719
1210.98	25.0493
1213.88	19.8522
1216.77	0.967285
1219.66	1.11658
1222.55	21.8861
1225.45	29.4385
1228.34	18.6186
1231.23	49.4762
1234.12	20.8452
1237.02	11.1527
1239.91	31.627
1242.8	28.0869
1245.7	23.7864
1248.59	8.71069
1251.48	39.2524
1254.37	18.3061
1257.27	22.4043
1260.16	25.6803
1263.05	23.2686
1265.94	2.91455
