Measurement: Raman, 780 nm, unoriented, Raman Data Processed
Mineral: Mullite
Rruff sample: R141101
Ideal chemistry: Al_4+2x_Si_2-2x_O_10-x_ (x  0.4)
Locality: Caspar quarry, Bellerberg volcano, Mayen, Eifel, Germany
Source: Ch. and H. Sch√§fer
Description: Violet acicular crystals
Raman shift (cm-1)	intensity
102.528	41791.8
105.903	41977
109.278	42081.3
112.652	42188.5
116.027	42341.5
119.402	42445.2
122.777	42584.5
126.152	42673.2
129.526	42726.3
132.901	42813
136.276	42805.7
139.651	42880.4
143.026	42943.8
146.401	43073.6
149.775	43190.4
153.15	43197.5
156.525	43320.3
159.9	43301.8
163.275	43297.8
166.649	43338.9
170.024	43275.7
173.399	43375
176.774	43421.9
180.149	43515
183.524	43563.8
186.898	43598.9
190.273	43570
193.648	43622.3
197.023	43601.1
200.398	43653.3
203.773	43757.5
207.147	43620.4
210.522	43636.4
213.897	43658.9
217.272	43665.4
220.647	43730.1
224.021	43721
227.396	43768.4
230.771	43821.3
234.146	43835.6
237.521	43789
240.895	43754.1
244.27	43819.2
247.645	43845.9
251.02	43742.3
254.395	43778.1
257.769	43855.9
261.144	43840.3
264.519	43869.8
267.894	43957.8
271.269	43927.4
274.644	43851.5
278.018	43794
281.393	43760.1
284.768	43746.4
288.143	43740.4
291.518	43661.4
294.892	43672.6
298.267	43609.2
301.642	43682.4
305.017	43650.6
308.392	43599.6
311.767	43533.9
315.141	43555.5
318.516	43551.2
321.891	43496.2
325.266	43554.4
328.641	43514.9
332.015	43489.4
335.39	43475.5
338.765	43290
342.14	43323.4
345.515	43339.1
348.89	43303.3
352.264	43284.1
355.639	43298.5
359.014	43302.5
362.389	43271.6
365.764	43341.3
369.139	43296.3
372.513	43125.2
375.888	43169.5
379.263	43159.7
382.638	43163.7
386.013	43107.6
389.387	43102.1
392.762	43135.4
396.137	43111.9
399.512	43112.2
402.887	43135.7
406.262	43047.3
409.636	43082.2
413.011	43026.9
416.386	42973.9
419.761	43123.7
423.136	43078.1
426.51	43062.7
429.885	43013.6
433.26	42964.4
436.635	42907.7
440.01	43090.6
443.385	42952.3
446.759	42882.6
450.134	42901.5
453.509	42938.4
456.884	42939.6
460.259	42863
463.633	42824.2
467.008	42817
470.383	42825.5
473.758	42775.5
477.133	42778.3
480.507	42689
483.882	42641.4
487.257	42583.3
490.632	42702
494.007	42651.5
497.382	42576.7
500.756	42505.1
504.131	42303.2
507.506	42365.8
510.881	42237.2
514.256	42235.3
517.63	42221.3
521.005	42116.7
524.38	42164
527.755	42128.8
531.13	41999.6
534.505	41984.4
537.879	42035.8
541.254	41905.2
544.629	41955.1
548.004	41863.9
551.379	41849.4
554.753	41689.2
558.128	41691.6
561.503	41611.5
564.878	41656
568.253	41630.7
571.628	41658.6
575.002	41680.4
578.377	41791.2
581.752	41707.7
585.127	41649.1
588.502	41573.6
591.876	41482.9
595.251	41580.5
598.626	41486.5
602.001	41516.6
605.376	41428.3
608.75	41332
612.125	41250.8
615.5	41273.3
618.875	41187.2
622.25	41190.4
625.625	41148.6
629	41128.6
632.374	41158.9
635.749	41103.1
639.124	41082.8
642.499	40948.7
645.874	40882
649.248	40814
652.623	40789.9
655.998	40790.8
659.373	40764.7
662.748	40692.8
666.122	40651.9
669.497	40570.6
672.872	40537.9
676.247	40586.3
679.622	40472.1
682.996	40443.7
686.371	40379.3
689.746	40406.8
693.121	40359.7
696.496	40304.1
699.871	40157.9
703.245	40222.4
706.62	40182
709.995	40145.4
713.37	40108.1
716.745	40116.5
720.12	40007.2
723.494	40013.3
726.869	39943.8
730.244	39927.4
733.619	39908.7
736.994	39855.1
740.368	39841.4
743.743	39789.3
747.118	39715.4
750.493	39707.1
753.868	39633.8
757.242	39545.5
760.617	39604.2
763.992	39669.7
767.367	39534.9
770.742	39413.8
774.117	39460.4
777.491	39405.6
780.866	39389.4
784.241	39365.7
787.616	39382.5
790.991	39339.8
794.365	39347.5
797.74	39273.9
801.115	39185.8
804.49	39322.6
807.865	39298
811.24	39278.3
814.614	39208.9
817.989	39170.6
821.364	39161
824.739	39136.7
828.114	39041.8
831.489	38989.9
834.863	39024.6
838.238	39100.4
841.613	38991.7
844.988	39002.7
848.362	38858.9
851.737	38899.4
855.112	38828.7
858.487	38739.7
861.862	38755.9
865.237	38612.7
868.611	38635.1
871.986	38650
875.361	38578.7
878.736	38452
882.111	38530.7
885.486	38445.6
888.86	38348.9
892.235	38313.6
895.61	38211.7
898.985	38195.1
902.36	38242
905.734	38179.6
909.109	38097.5
912.484	37992.7
915.859	38020.1
919.234	37875.8
922.609	37921.4
925.983	37948.5
929.358	37990.8
932.733	37847.4
936.108	37780.8
939.483	37729
942.857	37661.9
946.232	37692.4
949.607	37595.1
952.982	37636
956.357	37619.8
959.731	37534.5
963.106	37526.1
966.481	37448.6
969.856	37474.8
973.231	37337.3
976.606	37349.6
979.98	37400.2
983.355	37280.8
986.73	37275.3
990.105	37174.7
993.48	37243.4
996.855	37164.7
1000.23	37167.4
1003.6	37091.5
1006.98	37019.7
1010.35	36987.8
1013.73	37004.5
1017.1	36888.4
1020.48	36865.6
1023.85	36840.5
1027.23	36841.3
1030.6	36799.5
1033.98	36902.3
1037.35	36672.4
1040.73	36727.4
1044.1	36559.1
1047.48	36563.4
1050.85	36556.8
1054.23	36536.9
1057.6	36526.8
1060.98	36443.2
1064.35	36410.9
1067.73	36312.6
1071.1	36220.6
1074.47	36262
1077.85	36192.6
1081.22	36149.4
1084.6	36186.6
1087.97	36109.8
1091.35	36063.1
1094.72	35955.8
1098.1	35952.2
1101.47	35919.1
1104.85	35902.8
1108.22	35907.6
1111.6	35798.8
1114.97	35693.3
1118.35	35721.1
1121.72	35700.6
1125.1	35650
1128.47	35691.9
1131.85	35674.5
1135.22	35632.3
1138.6	35637.8
1141.97	35568.5
1145.35	35576.9
1148.72	35599.5
1152.1	35568
1155.47	35554.5
1158.85	35598.2
1162.22	35575.2
1165.6	35508.1
1168.97	35489.9
1172.35	35502.2
1175.72	35454.4
1179.1	35420.3
1182.47	35426.1
1185.84	35307.6
1189.22	35365.4
1192.59	35298.7
1195.97	35273.2
1199.34	35243.3
1202.72	35175.8
1206.09	35209.2
1209.47	35158.6
1212.84	35089.5
1216.22	35010.6
1219.59	35032.5
1222.97	35066.4
1226.34	34908.8
1229.72	34906.8
1233.09	34943.4
1236.47	34867
1239.84	34841.1
1243.22	34812.3
1246.59	34736.4
1249.97	34665.2
1253.34	34717.1
1256.71	34732.2
1260.09	34690
1263.46	34620
1266.84	34621.8
1270.21	34622.8
1273.59	34569.8
1276.96	34541.6
1280.34	34493.5
