Measurement: Raman, 780 nm, unoriented, Raman Data Processed
Mineral: Murdochite
Rruff sample: R110122
Ideal chemistry: Cu^2+^_12_Pb^4+^_2_O_15_Cl_2_
Locality: Mapimi, Mexico
Source: Rob Lavinsky
Description: Coating of black cubes
Measured chemistry: Pb_1.88_Cu_11.26_O_14.02_(Cl_1.07_Br_0.83_)_Î£=1.90_
Raman shift (cm-1)	intensity
180.313	0
183.206	2.52342
186.098	0.518574
188.991	1.33215
191.884	1.42445
194.776	2.72218
197.669	0.109013
200.562	0.941925
203.455	2.15869
206.347	0.256496
209.24	0.656696
212.133	2.37202
215.025	0.795143
217.918	1.07887
220.811	0.112503
223.703	1.74191
226.596	2.12856
229.489	1.84365
232.382	3.19945
235.274	4.07224
238.167	2.73547
241.06	5.54604
243.952	4.65884
246.845	3.88385
249.738	1.6523
252.631	3.18375
255.523	0.719433
258.416	0.310596
261.309	2.17293
264.201	2.56828
267.094	1.5646
269.987	3.59964
272.879	5.85844
275.772	4.93803
278.665	2.70943
281.558	5.71074
284.45	5.56015
287.343	6.10053
290.236	6.55273
293.128	6.42886
296.021	3.84132
298.914	4.03938
301.806	4.15426
304.699	5.68147
307.592	5.35951
310.485	3.73196
313.377	6.13105
316.27	5.6217
319.163	5.13228
322.055	3.79144
324.948	4.39368
327.841	3.64922
330.733	3.45519
333.626	3.9076
336.519	1.9992
339.411	1.59165
342.304	2.82499
345.197	1.15165
348.09	2.24906
350.982	1.99065
353.875	0.089979
356.768	0.531525
359.66	2.30413
362.553	0.183645
365.446	0.613604
368.339	0.458628
371.231	1.74115
374.124	0.508207
377.017	0.239323
379.909	0.341459
382.802	1.11807
385.695	0.914465
388.587	0.533978
391.48	0.871843
394.373	1.79163
397.265	1.34115
400.158	2.26111
403.051	0.766397
405.944	0.844282
408.836	1.03498
411.729	0.644966
414.622	1.38063
417.514	2.57763
420.407	0.501631
423.3	0.940645
426.192	2.7784
429.085	0.342829
431.978	2.54275
434.871	2.1761
437.763	3.64012
440.656	2.03692
443.549	2.79066
446.441	2.7502
449.334	2.36066
452.227	1.23566
455.12	3.14493
458.012	1.57354
460.905	2.01064
463.798	2.8172
466.69	2.25096
469.583	0.51701
472.476	1.17256
475.368	1.7266
478.261	1.34879
481.154	0.411201
484.046	1.66985
486.939	1.01688
489.832	2.56714
492.725	2.98078
495.617	1.41856
498.51	0.503742
501.403	3.52482
504.295	1.53882
507.188	1.8166
510.081	1.45965
512.973	1.70844
515.866	1.24136
518.759	2.06532
521.652	2.70922
524.544	3.60456
527.437	3.49226
530.33	4.79222
533.222	5.16412
536.115	3.02954
539.008	3.10113
541.9	0.751144
544.793	2.84766
547.686	0.161806
550.579	2.12308
553.471	0.630548
556.364	0.81999
559.257	0.412846
562.149	0.687843
565.042	1.10096
567.935	1.8491
570.827	1.98952
573.72	0.90049
576.613	0.831795
579.506	1.51203
582.398	0.178558
585.291	1.6959
588.184	2.46155
591.076	1
593.969	1.98916
596.862	1.00535
599.755	1.19643
602.647	0.780912
605.54	2.07943
608.433	2.02414
611.325	0.989737
614.218	1.19883
617.111	0.736942
620.003	1.39154
622.896	2.00849
625.789	2.39867
628.682	0.305452
631.574	0.273638
634.467	1.41717
637.36	0.029343
640.252	0.135067
643.145	1.33509
646.038	1.30088
648.93	0.908537
651.823	1.81395
654.716	1.41863
657.609	2.38774
660.501	0.75222
663.394	1.18835
666.287	1.9991
669.179	0.955332
672.072	1.54632
674.965	0.674017
677.857	1.8237
680.75	1.34506
683.643	3.384
686.535	0.016164
689.428	2.00645
692.321	1.52786
695.214	1.25306
698.106	1.35491
700.999	1.53529
703.892	2.27851
706.784	1.41678
709.677	1.05758
712.57	0.002096
715.462	0.962506
718.355	1.72833
721.248	1.20163
724.141	0.266861
727.033	0.962343
729.926	0.325576
732.819	0.071515
735.711	0.578597
738.604	0.168155
741.497	0.854743
744.389	2.10597
747.282	0.712621
750.175	0.155012
753.068	0.804008
755.96	1.65826
758.853	0.055917
761.746	1.7871
764.638	0.709205
767.531	1.55187
770.424	1.26793
773.317	1.43858
776.209	0.638948
779.102	1.34233
781.995	0.338531
784.887	0.780002
787.78	0.456151
790.673	1.25214
793.565	1.27602
796.458	1.19242
799.351	2.21325
802.244	1.4129
805.136	0.06187
808.029	1.46874
810.922	0.718936
813.814	2.56547
816.707	1.23374
819.6	1.58848
822.492	1.80209
825.385	2.56439
828.278	1.04514
831.17	0.261951
834.063	1.91133
836.956	0.436967
839.849	0.999184
842.741	1.60305
845.634	1.22103
848.527	0.50388
851.419	0.951689
854.312	1.16939
857.205	1.33837
860.097	0.696769
862.99	1.87069
865.883	0.746515
868.776	1.5202
871.668	0.139105
874.561	0.479409
877.454	1.93929
880.346	0.906431
883.239	1.34297
886.132	0.758411
889.024	0.120572
891.917	1.0033
894.81	0.457578
897.703	1.61705
900.595	1.50181
903.488	0.668483
906.381	0.07499
909.273	0.513754
912.166	1.39032
915.059	2.06812
917.952	1.36002
920.844	0.245524
923.737	1.4177
926.63	1.39158
929.522	1.8125
932.415	1.53488
935.308	0.733006
938.2	1.99312
941.093	2.59601
943.986	2.34345
946.879	1.24208
949.771	0.025089
952.664	0.903675
955.557	1.08891
958.449	0.191957
961.342	0.711281
964.235	0.32144
967.127	1.70183
970.02	0.721593
972.913	1.62359
975.806	0.368639
978.698	2.16098
981.591	1.28127
984.484	1.49411
987.376	0.093293
990.269	2.70657
993.162	0.754966
996.054	1.01397
998.947	0.305532
1001.84	0.201048
1004.73	0.763394
1007.62	0.679814
1010.52	0.070166
1013.41	1.59368
1016.3	0.703332
1019.2	0.6465
1022.09	1.18398
1024.98	1.03261
1027.87	2.47978
1030.77	0.409393
1033.66	1.06027
1036.55	0.066825
1039.44	0.0565514
1042.34	1.15994
1045.23	2.22405
1048.12	0.561479
1051.02	2.25703
1053.91	2.26407
1056.8	1.51029
1059.69	1.34441
1062.59	1.01799
1065.48	1.41134
1068.37	1.80501
1071.27	0.178832
1074.16	1.0094
1077.05	0.574327
1079.94	1.77187
1082.84	0.384466
1085.73	0.461453
1088.62	1.72818
1091.51	0.668174
1094.41	2.40718
1097.3	1.54628
1100.19	2.24627
1103.08	1.66796
1105.98	2.42329
1108.87	1.39662
1111.76	1.90847
1114.65	2.72478
1117.55	0.484863
1120.44	2.34878
1123.33	0.910792
1126.23	2.50883
1129.12	1.80605
1132.01	1.83003
1134.9	2.09763
1137.8	2.45316
1140.69	2.20704
1143.58	0.507154
1146.47	2.64255
1149.37	1.91343
1152.26	1.18656
1155.15	2.0257
1158.05	1.18967
1160.94	3.39278
1163.83	1.65254
1166.72	2.17285
1169.62	1.13261
1172.51	0.852218
1175.4	3.6736
1178.3	0.207781
1181.19	2.19143
1184.08	0.285521
1186.97	1.82122
1189.87	3.47998
1192.76	1.77856
1195.65	2.34899
1198.54	3.62464
1201.44	0.032176
1204.33	1.95886
1207.22	2.35819
1210.11	1.35246
1213.01	1.53978
1215.9	1.68753
1218.79	1.66808
1221.68	2.29556
1224.58	3.23139
1227.47	2.23964
1230.36	2.3491
1233.26	2.32036
1236.15	2.19617
1239.04	2.23022
1241.93	2.01813
1244.83	0.875611
1247.72	0.198971
1250.61	1.25101
1253.51	2.5611
1256.4	1.25142
1259.29	1.07714
1262.18	2.34126
1265.08	1.3535
1267.97	1.49638
1270.86	1.49524
1273.75	0.233245
1276.65	2.27253
1279.54	2.01157
1282.43	0.838078
1285.32	0
