Measurement: Raman, 780 nm, unoriented, Raman Data Processed
Mineral: Murmanite
Rruff sample: R110202
Ideal chemistry: Na_2_Ti^4+^_2_Na_2_Ti^4+^_2_(Si_2_O_7_)_2_O_4_(H_2_O)_4_
Locality: Kvanefjeld Mt., Kuannersuit plateau, Ilimaussaq complex, Narsaq, Kitaa Province, Greenland
Source: Donald Doell
Description: Pink plates frozen in matrix
Raman shift (cm-1)	intensity
121.013	127.113
124.388	142.326
127.762	155.843
131.137	174.361
134.512	198.764
137.887	236.017
141.262	272.49
144.636	283.603
148.011	284.427
151.386	301.375
154.761	323.305
158.136	334.384
161.51	324.232
164.885	288.84
168.26	247.379
171.635	212.831
175.01	185.889
178.385	166.525
181.759	153.259
185.134	144.644
188.509	138.378
191.884	134.945
195.259	133.359
198.633	133.394
202.008	133.362
205.383	134.659
208.758	134.833
212.133	132.23
215.507	131.108
218.882	130.468
222.257	130.933
225.632	133.788
229.007	136.61
232.382	140.958
235.756	145.058
239.131	147.599
242.506	151.322
245.881	152.361
249.256	153.725
252.631	155.631
256.005	160.707
259.38	165.364
262.755	165.97
266.13	163.661
269.505	159.093
272.879	154.796
276.254	150.167
279.629	147.3
283.004	147.646
286.379	148.287
289.753	153.21
293.128	160.675
296.503	167.799
299.878	177.753
303.253	186.764
306.628	191.27
310.002	194.177
313.377	194.538
316.752	200.219
320.127	204.33
323.502	208.904
326.877	212.073
330.251	213.998
333.626	217.631
337.001	222.358
340.376	227.227
343.75	234.172
347.125	240.877
350.5	242.898
353.875	237.244
357.25	227.725
360.625	218.202
364	208.057
367.374	198.809
370.749	192.975
374.124	188.935
377.499	184.623
380.873	182.787
384.248	179.676
387.623	176.234
390.998	176.192
394.373	174.25
397.748	172.407
401.122	170.428
404.497	169.871
407.872	168.967
411.247	170.907
414.622	172.01
417.997	170.731
421.371	171.528
424.746	170.129
428.121	166.906
431.496	166.473
434.871	163.573
438.245	162.671
441.62	160.791
444.995	159.679
448.37	156.254
451.745	150.468
455.12	146.207
458.494	140.782
461.869	136.525
465.244	133.627
468.619	130.008
471.994	125.156
475.368	121.67
478.743	117.176
482.118	115.096
485.493	110.797
488.868	108.724
492.243	106.643
495.617	104.802
498.992	103.049
502.367	101.37
505.742	99.4811
509.117	99.5245
512.491	98.6105
515.866	97.9824
519.241	98.1949
522.616	98.3471
525.991	98.819
529.365	99.0964
532.74	100.521
536.115	102.359
539.49	104.857
542.865	106.163
546.24	108.67
549.614	109.438
552.989	110.425
556.364	109.956
559.739	110.382
563.114	110.66
566.489	110.682
569.863	112.437
573.238	112.412
576.613	111.347
579.988	108.668
583.362	106.962
586.737	104.782
590.112	101.783
593.487	100.616
596.862	98.8646
600.237	96.4207
603.611	94.6558
606.986	91.7827
610.361	90.5593
613.736	88.5964
617.111	88.0404
620.486	87.3658
623.86	87.0905
627.235	86.943
630.61	87.6128
633.985	89.4021
637.36	90.4176
640.734	90.6033
644.109	92.9428
647.484	95.1813
650.859	98.0456
654.234	102.398
657.609	107.136
660.983	111.879
664.358	116.707
667.733	122.588
671.108	128.128
674.483	132.171
677.857	135.077
681.232	134.507
684.607	132.219
687.982	129.942
691.357	126.831
694.731	122.731
698.106	119.752
701.481	118.325
704.856	115.675
708.231	112.549
711.606	111.691
714.98	109.419
718.355	105.903
721.73	101.828
725.105	97.9553
728.48	93.981
731.855	92.8365
735.229	90.881
738.604	88.6841
741.979	85.7618
745.354	84.1423
748.729	81.1723
752.103	79.436
755.478	77.625
758.853	75.4495
762.228	74.4452
765.603	71.6988
768.977	70.6697
772.352	70.2331
775.727	68.1486
779.102	66.5924
782.477	64.4145
785.852	63.5347
789.226	62.4166
792.601	61.0471
795.976	59.3599
799.351	58.0952
802.726	56.7372
806.101	56.5
809.475	55.6255
812.85	54.776
816.225	54.5784
819.6	53.4382
822.975	53.9346
826.349	53.0207
829.724	53.5057
833.099	54.1904
836.474	55.8895
839.849	55.8717
843.223	58.4571
846.598	59.6818
849.973	60.7719
853.348	60.2724
856.723	58.4236
860.097	57.0566
863.472	54.8608
866.847	52.7966
870.222	51.973
873.597	50.3786
876.972	50.4117
880.346	50.6858
883.721	52.8167
887.096	52.8765
890.471	55.7287
893.846	57.9959
897.221	60.8651
900.595	65.3287
903.97	68.5278
907.345	70.7114
910.72	71.3751
914.095	72.9643
917.469	75.7685
920.844	78.9652
924.219	83.141
927.594	88.5306
930.969	92.064
934.343	93.5341
937.718	90.6749
941.093	83.9284
944.468	76.8937
947.843	69.7126
951.218	64.4407
954.592	60.7286
957.967	58.0183
961.342	56.8006
964.717	55.843
968.092	53.6411
971.466	52.1427
974.841	51.2505
978.216	51.1961
981.591	49.9725
984.966	50.3255
988.341	49.5428
991.715	49.7668
995.09	49.8737
998.465	50.4639
1001.84	49.7627
1005.22	49.6194
1008.59	47.695
1011.96	47.4171
1015.34	46.4575
1018.71	47.136
1022.09	47.3314
1025.46	46.7944
1028.84	47.3576
1032.21	48.0805
1035.59	49.0491
1038.96	49.5924
1042.34	51.0073
1045.71	52.2673
1049.09	53.1778
1052.46	52.7377
1055.84	53.441
1059.21	52.1584
1062.59	52.4532
1065.96	52.2434
1069.34	53.1566
1072.71	53.3261
1076.09	54.2837
1079.46	54.3021
1082.84	55.8549
1086.21	56.3526
1089.59	59.3232
1092.96	60.7677
1096.34	62.0222
1099.71	63.3853
1103.08	65.247
1106.46	67.3898
1109.83	70.0606
1113.21	72.939
1116.58	76.143
1119.96	79.7288
1123.33	84.3237
1126.71	88.9067
1130.08	95.231
1133.46	102.528
1136.83	108.938
1140.21	112.556
1143.58	113.102
1146.96	110.534
1150.33	110.436
1153.71	111.662
1157.08	113.469
1160.46	115.886
1163.83	119.84
1167.21	124.538
1170.58	130.016
1173.96	134.446
1177.33	140.844
1180.7	148.382
1184.08	153.698
1187.45	161.017
1190.83	167.888
1194.2	175.627
1197.58	182.532
1200.95	190.598
1204.33	198.581
1207.7	207.201
1211.08	216.665
1214.45	228.422
1217.83	240.526
1221.2	251.548
1224.58	266.991
1227.95	282.668
1231.33	298.764
1234.7	319.264
1238.08	343.745
1241.45	366.701
1244.83	397.677
1248.2	432.182
1251.58	470.038
1254.95	511.507
1258.33	561.118
1261.7	614.628
1265.08	675.957
1268.45	740.83
1271.83	814.601
1275.2	897.636
1278.58	986.249
1281.95	1084.23
1285.32	1183.68
