Measurement: Raman, 532 nm, unoriented, Raman Data Processed
Mineral: Nacrite
Rruff sample: R100066
Ideal chemistry: Al_2_Si_2_O_5_(OH)_4_
Locality: Geisberg, Schweighausen, Black Forest, Germany
Source: Bob Jenkins
Description: Stacks of parallel pseudohexagonal white plates
Raman shift (cm-1)	intensity
184.023	0
186.916	9.86572
189.808	15.5718
192.701	11.9216
195.594	21.0122
198.486	39.2456
201.379	45.4644
204.272	53.2178
207.164	47.2356
210.057	44.897
212.95	43.1589
215.843	40.9861
218.735	44.8059
221.628	37.3279
224.521	46.4556
227.413	43.1211
230.306	55.5564
233.199	67.803
236.091	72.2637
238.984	53.7375
241.877	54.0164
244.769	45.8538
247.662	43.7031
250.555	35.0032
253.448	35.3472
256.34	33.5518
259.233	24.873
262.126	19.2068
265.018	19.2698
267.911	24.9038
270.804	16.897
273.697	10.2134
276.589	11.2078
279.482	6.24731
282.375	4.97656
285.267	3.05566
288.16	11.7324
291.053	10.7312
293.945	7.70947
296.838	0.984375
299.731	2.72998
302.623	4.68311
305.516	0.740234
308.409	7.57275
311.302	9.72607
314.194	3.88037
317.087	5.27051
319.98	17.0039
322.872	30.1025
325.765	24.5215
328.658	22.0039
331.55	33.1455
334.443	27.6885
337.336	40.9653
340.229	40.2891
343.121	19.2861
346.014	19.5332
348.907	12.5757
351.799	14.5371
354.692	6.83252
357.585	13.604
360.478	27.7012
363.37	24.0811
366.263	21.2832
369.156	13.3545
372.048	1.15674
374.941	2.98828
377.834	0.898926
380.726	6.49707
383.619	3.43066
386.512	3.2251
389.404	15.2993
392.297	10.9956
395.19	3.58106
398.083	2.22168
400.975	5.97412
403.868	17.3135
406.761	8.58887
409.653	27.1514
412.546	32.21
415.439	34.6211
418.332	46.9707
421.224	38.9556
424.117	31.5752
427.01	27.8306
429.902	43.7563
432.795	43.2041
435.688	56.3447
438.58	50.3257
441.473	42.6328
444.366	34.8657
447.259	32.1118
450.151	37.4331
453.044	38.3691
455.937	42.0732
458.829	49.043
461.722	54.5166
464.615	75.2563
467.507	64.9268
470.4	73.3462
473.293	60.9653
476.185	45.1226
479.078	53.7837
481.971	50.8667
484.864	51.9067
487.756	44.9482
490.649	32.8262
493.542	24.1148
496.434	25.5479
499.327	25.4541
502.22	24.1436
505.113	28.9619
508.005	24.8071
510.898	22.1748
513.791	12.623
516.683	18.5059
519.576	1.68994
522.469	7.37305
525.361	10.7124
528.254	16.9678
531.147	0.261719
534.04	6.06445
536.932	8.38721
539.825	2.14014
542.718	1.02539
545.61	10.7974
548.503	4.22705
551.396	12.1655
554.288	8.6919
557.181	1.9458
560.074	2.67236
562.967	17.3076
565.859	17.5347
568.752	21.7979
571.645	15.939
574.537	7.46729
577.43	0.061035
580.323	20.4175
583.216	28.4917
586.108	42.1987
589.001	45.4517
591.894	32.4829
594.786	33.3628
597.679	28.939
600.572	47.8433
603.464	20.5107
606.357	32.2217
609.25	34.3603
612.142	34.9512
615.035	31.6919
617.928	23.9219
620.821	20.9619
623.713	21.4316
626.606	18.9155
629.499	14.4727
632.391	25.5703
635.284	21.0102
638.177	21.8442
641.069	2.58301
643.962	7.77783
646.855	5.77881
649.747	19.46
652.64	18.7197
655.533	25.1289
658.426	21.1045
661.318	23.8765
664.211	6.07373
667.104	0.845703
669.996	11.5996
672.889	2.00586
675.782	9.354
678.674	6.43018
681.567	16.9497
684.46	15.8887
687.353	3.03174
690.245	12.4536
693.138	7.83545
696.031	5.68213
698.923	13.9888
701.816	8.92383
704.709	12.5664
707.601	7.01904
710.494	28.1519
713.387	45.8345
716.28	32.9116
719.172	3.43457
722.065	12.6108
724.958	22.9263
727.85	20.9419
730.743	20.4785
733.636	25.5894
736.529	25.0361
739.421	28.2153
742.314	8.89062
745.207	29.1172
748.099	26.498
750.992	33.4536
753.885	20.5513
756.777	28.0361
759.67	19.8906
762.563	9.81445
765.456	18.0962
768.348	8.26514
771.241	6.4541
774.134	18.8555
777.026	23.8555
779.919	23.293
782.812	15.4932
785.704	20.4185
788.597	19.2383
791.49	41.706
794.383	29.353
797.275	23.3633
800.168	19.8267
803.061	15.3105
805.953	2.64062
808.846	5.32715
811.739	15.063
814.631	2.93408
817.524	4.19531
820.417	11.4307
823.309	16.2661
826.202	0.162598
829.095	6.93945
831.988	10.9805
834.88	11.7236
837.773	5.33838
840.666	9.00879
843.558	6.35449
846.451	14.544
849.344	15.6538
852.236	8.14355
855.129	16.8809
858.022	18.5415
860.915	19.188
863.807	27.5054
866.7	18.6758
869.593	8.79004
872.485	14.6362
875.378	28.4595
878.271	29.0142
881.163	19.7222
884.056	22.2085
886.949	16.2803
889.842	47.9692
892.734	30.9482
895.627	56.6318
898.52	51.7031
901.412	61.9282
904.305	49.3682
907.198	49.7485
910.091	61.0332
912.983	56.4775
915.876	55.9214
918.769	71.4834
921.661	57.0386
924.554	47.9902
927.447	48.3101
930.339	40.5537
933.232	32.1069
936.125	26.0791
939.018	37.0112
941.91	38.5063
944.803	31.5132
947.696	45.271
950.588	40.3413
953.481	41.5869
956.374	22.707
959.266	28.8613
962.159	9.97705
965.052	10.5225
967.944	2.60596
970.837	4.44629
973.73	13.6123
976.623	13.9878
979.515	17.3686
982.408	19.8032
985.301	13.2002
988.193	36.5674
991.086	30.0938
993.979	14.6065
996.871	8.3501
999.764	0.560547
1002.66	9.79639
1005.55	20.7173
1008.44	22.5874
1011.34	25.2524
1014.23	16.8003
1017.12	25.6348
1020.01	30.0269
1022.91	8.98828
1025.8	11.5088
1028.69	11.3511
1031.58	22.813
1034.48	28.7441
1037.37	38.1284
1040.26	4.37305
1043.15	7.42139
1046.05	12.6509
1048.94	10.6074
1051.83	1.62744
1054.73	24.1592
1057.62	16.8818
1060.51	15.6167
1063.4	17.3594
1066.3	9.58008
1069.19	16.1299
1072.08	20.6714
1074.97	21.9399
1077.87	42.9277
1080.76	47.9834
1083.65	50.8296
1086.55	38.3227
1089.44	28.7612
1092.33	37.373
1095.22	59.7305
1098.12	43.6582
1101.01	45.5796
1103.9	34.5117
1106.79	58.6045
1109.69	50.1221
1112.58	51.6284
1115.47	45.6201
1118.37	42.0352
1121.26	40.624
1124.15	32.4546
1127.04	24.314
1129.94	34.0913
1132.83	24.3389
1135.72	44.3115
1138.61	37.541
1141.51	27.4517
1144.4	20.0395
1147.29	32.4214
1150.18	25.6509
1153.08	28.2183
1155.97	39.3779
1158.86	24.5835
1161.76	10.061
1164.65	0.956055
1167.54	14.771
1170.43	22.4165
1173.33	15.0239
1176.22	14.8267
1179.11	8.84326
1182	15.002
1184.9	7.84668
1187.79	4.90674
1190.68	6.54346
1193.58	3.82178
1196.47	21.8374
1199.36	28.7388
1202.25	18.6782
1205.15	8.83301
1208.04	6.62988
1210.93	5.82422
1213.82	8.54883
