Measurement: Raman, 532 nm, unoriented, Raman Data Processed
Mineral: Natrolite
Rruff sample: R120124
Ideal chemistry: Na_2_(Si_3_Al_2_)O_10_2H_2_O
Locality: Sagasen, Telemark, Norway
Source: Marcus Origlieri
Description: Colorless transparent prisms associated with b√∂hmite R120123
Raman shift (cm-1)	intensity
193.017	2267.68
195.909	2339.4
198.802	2362.15
201.695	2379.11
204.588	2442.89
207.48	2492.98
210.373	2536.28
213.266	2563.27
216.158	2568.22
219.051	2605.04
221.944	2611.78
224.836	2629.18
227.729	2666.9
230.622	2705.23
233.514	2716.07
236.407	2739.43
239.3	2759.97
242.193	2792.77
245.085	2803.68
247.978	2812.15
250.871	2843.38
253.763	2848.97
256.656	2874.88
259.549	2908.04
262.442	2924.99
265.334	2942.09
268.227	2969.43
271.12	2989.3
274.012	3015.45
276.905	3038.99
279.798	3048.85
282.69	3081.44
285.583	3092.5
288.476	3124.43
291.368	3148.32
294.261	3158.25
297.154	3188.53
300.047	3209.53
302.939	3236.3
305.832	3264.61
308.725	3280.78
311.617	3315.7
314.51	3344.63
317.403	3362.73
320.296	3383.89
323.188	3412.64
326.081	3451.3
328.974	3473.24
331.866	3495.94
334.759	3524.54
337.652	3553.43
340.544	3584.48
343.437	3621.3
346.33	3634.88
349.223	3672.68
352.115	3706.18
355.008	3733.76
357.901	3737.43
360.793	3786.35
363.686	3817.98
366.579	3828.7
369.471	3852.14
372.364	3879.75
375.257	3903.33
378.149	3933.89
381.042	3956.61
383.935	3975.15
386.828	4017.39
389.72	4053.5
392.613	4081
395.506	4090.36
398.398	4133.79
401.291	4157.56
404.184	4199.22
407.077	4210.47
409.969	4257.57
412.862	4276.22
415.755	4314.25
418.647	4334.6
421.54	4359.86
424.433	4382.34
427.325	4432.82
430.218	4468.7
433.111	4514.56
436.003	4550.85
438.896	4604.41
441.789	4664.55
444.682	4663.7
447.574	4649.12
450.467	4685.57
453.36	4689.67
456.252	4713.14
459.145	4751.97
462.038	4781.17
464.93	4804.88
467.823	4832.35
470.716	4886.45
473.609	4922.92
476.501	4989.95
479.394	5018.02
482.287	5039.14
485.179	5061.56
488.072	5089.28
490.965	5125.57
493.858	5136.89
496.75	5167.87
499.643	5205.81
502.536	5223.13
505.428	5272.54
508.321	5279.01
511.214	5325.39
514.106	5377.6
516.999	5393.48
519.892	5448.73
522.784	5511.88
525.677	5564.95
528.57	5638.44
531.463	5676.57
534.355	5726.55
537.248	5733.48
540.141	5719.05
543.033	5728.92
545.926	5745.31
548.819	5772.8
551.712	5808.92
554.604	5843.92
557.497	5883.88
560.39	5922.83
563.282	5952.33
566.175	5971.53
569.068	6006.53
571.96	6054.63
574.853	6074.09
577.746	6170.91
580.639	6175.79
583.531	6223.14
586.424	6267.03
589.317	6299.98
592.209	6343.49
595.102	6370.36
597.995	6411.83
600.888	6470.68
603.78	6488.42
606.673	6540.67
609.566	6586.45
612.458	6619.02
615.351	6634.63
618.244	6724.48
621.136	6772.53
624.029	6799.7
626.922	6833.31
629.814	6841.23
632.707	6897.55
635.6	6911.28
638.493	6960.09
641.385	6992.98
644.278	7024.85
647.171	7095.65
650.063	7132.96
652.956	7187.35
655.849	7225.01
658.741	7269.36
661.634	7288.4
664.527	7338.18
667.42	7376.48
670.312	7432.6
673.205	7472.18
676.098	7518.89
678.99	7569.12
681.883	7596.09
684.776	7634.07
687.668	7701.03
690.561	7764.37
693.454	7804.11
696.347	7842.32
699.239	7890.08
702.132	7923.48
705.025	7970.78
707.917	8035.09
710.81	8072.23
713.703	8101.15
716.596	8145.02
719.488	8209.47
722.381	8265.7
725.274	8318.29
728.166	8370.83
731.059	8373.83
733.952	8445.78
736.844	8484.44
739.737	8541.8
742.63	8581.7
745.523	8646.29
748.415	8696.42
751.308	8722.67
754.201	8736.44
757.093	8788.81
759.986	8876.61
762.879	8901.07
765.771	8970.24
768.664	9014.54
771.557	9070.59
774.449	9144
777.342	9180.31
780.235	9223.81
783.128	9255.97
786.02	9293.39
788.913	9343.92
791.806	9413.33
794.698	9469.68
797.591	9502.64
800.484	9541.44
803.376	9592.39
806.269	9685.58
809.162	9723.03
812.055	9754.01
814.947	9832.84
817.84	9870.33
820.733	9960.98
823.625	10014.8
826.518	10063.2
829.411	10075.4
832.303	10119.1
835.196	10175.4
838.089	10219.7
840.982	10327.1
843.874	10372.5
846.767	10411.7
849.66	10456.9
852.552	10530.8
855.445	10584.7
858.338	10628.1
861.231	10689.9
864.123	10735.1
867.016	10789.3
869.909	10812.5
872.801	10861.5
875.694	10936.8
878.587	10989.9
881.479	11037.1
884.372	11058.6
887.265	11147
890.158	11210.7
893.05	11236.1
895.943	11323.4
898.836	11382.5
901.728	11468.5
904.621	11494.6
907.514	11565.1
910.406	11637.4
913.299	11680.9
916.192	11727.6
919.085	11783.6
921.977	11828.8
924.87	11939.9
927.763	11964.6
930.655	12001.2
933.548	12097.8
936.441	12158.1
939.333	12233.4
942.226	12294.2
945.119	12338.1
948.011	12383.6
950.904	12385.6
953.797	12432.8
956.69	12483.3
959.582	12575.7
962.475	12650.4
965.368	12730.5
968.26	12803.8
971.153	12867.7
974.046	12919
976.938	12976.3
979.831	13025.8
982.724	13073.8
985.617	13106.8
988.509	13195.3
991.402	13235
994.295	13271.6
997.187	13367.6
1000.08	13413.1
1002.97	13476.8
1005.87	13531.5
1008.76	13589.1
1011.65	13660.4
1014.54	13737.5
1017.44	13788
1020.33	13851.8
1023.22	13906.4
1026.11	13942
1029.01	14052.5
1031.9	14105.2
1034.79	14170
1037.68	14199
1040.58	14279.6
1043.47	14324.9
1046.36	14403.3
1049.26	14443.6
1052.15	14480.4
1055.04	14515.8
1057.93	14576
1060.83	14611.3
1063.72	14704
1066.61	14750.6
1069.51	14796.2
1072.4	14847.1
1075.29	14953.7
1078.18	14988.2
1081.08	15090.2
1083.97	15155.2
1086.86	15202.4
1089.75	15272.2
1092.65	15281.8
1095.54	15382.1
1098.43	15429.5
1101.33	15482.4
1104.22	15526.3
1107.11	15531.6
1110	15613.3
1112.89	15721
1115.79	15723.9
1118.68	15827.6
1121.57	15869.5
1124.47	15907
1127.36	15981
1130.25	16012.9
1133.14	16087.2
1136.04	16140.6
1138.93	16217.4
1141.82	16229.1
1144.71	16281.2
1147.61	16365.5
1150.5	16390
1153.39	16423.8
1156.29	16480.8
1159.18	16484.1
1162.07	16565.4
1164.96	16629.4
1167.86	16682.8
1170.75	16755.6
1173.64	16849.8
1176.54	16914.5
1179.43	16929.8
1182.32	16960.5
1185.21	17010.7
1188.11	17052.5
1191	17071.9
1193.89	17146.6
1196.78	17243.9
1199.68	17293.8
1202.57	17317.1
1205.46	17414.7
1208.35	17439.3
1211.25	17519.7
1214.14	17550.2
1217.03	17559.8
1219.92	17570
1222.82	17636
1225.71	17708.9
1228.6	17725.8
1231.5	17803.8
1234.39	17832.7
1237.28	17874.6
1240.17	17905.8
1243.07	17929.2
1245.96	18023
1248.85	18060.3
1251.74	18096.5
1254.64	18143.5
1257.53	18217.9
1260.42	18295
1263.32	18342.6
1266.21	18350
1269.1	18435.7
1271.99	18392.7
1274.89	18473.8
1277.78	18491.5
1280.67	18616.4
1283.57	18559.7
1286.46	18615.2
1289.35	18619.3
1292.24	18662.6
1295.13	18747
1298.03	18746.7
1300.92	18801
