Measurement: Raman, 785 nm, unoriented, Raman Data Processed
Mineral: Naumannite
Rruff sample: R070505
Ideal chemistry: Ag^1+^_2_Se^2-^
Locality: DeLamar mine, Silver City District, Owyhee County, Idaho, USA
Source: James Shigley
Description: Dark gray metallic massive
Raman shift (cm-1)	intensity
159.487	0
162.38	3.11755
165.273	58.7647
168.165	14.7634
171.058	30.8793
173.951	25.9786
176.843	36.3733
179.736	9.97852
182.629	13.2598
185.522	2.28418
188.414	7.99146
191.307	25.4863
194.2	34.8042
197.092	34.7894
199.985	19.0077
202.878	5.33484
205.77	29.6786
208.663	0.906128
211.556	15.6075
214.448	6.23474
217.341	0.779419
220.234	1.02478
223.127	22.2001
226.019	25.6871
228.912	34.0344
231.805	39.1431
234.697	28.3446
237.59	64.6614
240.483	70.6785
243.375	66.4507
246.268	76.6178
249.161	55.1272
252.054	36.8184
254.946	61.5792
257.839	72.2516
260.732	55.346
263.624	34.5162
266.517	41.8265
269.41	52.0083
272.302	44.6224
275.195	42.7997
278.088	60.7932
280.981	67.5323
283.873	45.405
286.766	11.1992
289.659	38.5167
292.551	36.6519
295.444	34.6558
298.337	13.3728
301.229	19.3003
304.122	0.676025
307.015	16.6686
309.908	24.0861
312.8	13.9054
315.693	3.18384
318.586	25.6075
321.478	25.3135
324.371	22.3768
327.264	25.3926
330.156	22.1725
333.049	28.8154
335.942	17.3978
338.834	31.1129
341.727	1.51746
344.62	26.2255
347.513	8.88586
350.405	18.2756
353.298	19.5102
356.191	25.7278
359.083	23.293
361.976	4.38025
364.869	22.1605
367.762	20.1589
370.654	0.439819
373.547	15.8649
376.44	20.9093
379.332	52.4029
382.225	18.7288
385.118	19.2478
388.01	9.97009
390.903	20.9695
393.796	45.037
396.688	13.349
399.581	25.894
402.474	35.5626
405.367	29.9402
408.259	18.8962
411.152	30.0955
414.045	39.6703
416.937	17.7898
419.83	10.4371
422.723	6.66882
425.615	7.13757
428.508	42.7833
431.401	9.62256
434.293	20.6997
437.186	20.5395
440.079	19.5375
442.972	19.4197
445.864	11.3872
448.757	5.00787
451.65	42.6898
454.542	24.2903
457.435	4.88293
460.328	32.5893
463.221	28.0352
466.113	43.3644
469.006	20.7795
471.899	34.9906
474.791	0.244324
477.684	8.69
480.577	17.9803
483.469	26.8525
486.362	24.7575
489.255	35.8376
492.147	25.4889
495.04	36.2803
497.933	19.0823
500.826	9.05273
503.718	49.7709
506.611	9.698
509.504	19.1848
512.396	20.1936
515.289	24.7698
518.182	16.7801
521.074	36.6043
523.967	27.9783
526.86	27.0604
529.753	53.7439
532.645	22.843
535.538	47.4749
538.431	23.6082
541.323	31.9378
544.216	34.2777
547.109	24.4523
550.001	21.7878
552.894	36.6793
555.787	20.1115
558.68	52.6908
561.572	29.5078
564.465	3.94116
567.358	8.61029
570.25	22.0891
573.143	45.0525
576.036	29.0878
578.928	34.5095
581.821	27.2949
584.714	29.5577
587.607	34.3577
590.499	17.5912
593.392	21.4849
596.285	28.2283
599.177	37.3414
602.07	21.5109
604.963	9.86432
607.856	17.075
610.748	19.2833
613.641	12.4905
616.534	12.5875
619.426	7.31622
622.319	14.3011
625.212	7.84686
628.104	15.7246
630.997	21.0071
633.89	6.52393
636.782	2.4372
639.675	38.9736
642.568	9.92206
645.461	23.7443
648.353	32.1502
651.246	30.2664
654.139	30.0917
657.031	13.6138
659.924	24.0848
662.817	8.44775
665.709	13.4858
668.602	16.4928
671.495	5.78253
674.388	28.1998
677.28	13.3757
680.173	25.1223
683.066	3.20282
685.958	2.12341
688.851	7.27283
691.744	34.9932
694.636	11.6926
697.529	16.8859
700.422	6.58716
703.314	9.97272
706.207	20.5719
709.1	10.1442
711.993	8.45142
714.885	6.8313
717.778	4.6922
720.671	25.692
723.563	2.18976
726.456	14.1955
729.349	10.9614
732.241	8.39557
735.134	26.1027
738.027	1.81537
740.92	29.6698
743.812	13.0317
746.705	23.1197
749.598	22.5551
752.49	18.1547
755.383	27.5737
758.276	16.4827
761.168	9.36212
764.061	18.3248
766.954	17.5334
769.847	6.77826
772.739	8.91785
775.632	35.1794
778.525	19.2502
781.417	1.112
784.31	21.808
787.203	23.6618
790.096	4.04694
792.988	21.102
795.881	15.9819
798.774	4.02551
801.666	22.0704
804.559	25.792
807.452	19.59
810.344	41.9946
813.237	18.5243
816.13	26.5207
819.023	23.8884
821.915	1.95123
824.808	30.1553
827.701	30.3463
830.593	21.5085
833.486	32.4876
836.379	20.9409
839.271	11.3358
842.164	13.7425
845.057	24.0428
847.949	9.33997
850.842	28.3461
853.735	20.2292
856.628	7.34039
859.52	45.2133
862.413	48.1459
865.306	21.9058
868.198	22.0482
871.091	47.6445
873.984	55.913
876.876	18.9967
879.769	4.32013
882.662	28.9799
885.554	32.0324
888.447	29.0105
891.34	20.2471
894.233	6.5445
897.125	23.7172
900.018	17.5212
902.911	17.3408
905.803	20.7573
908.696	18.4775
911.589	15.391
914.481	13.9565
917.374	25.78
920.267	28.1311
923.16	6.38202
926.052	0.060669
928.945	16.3326
931.838	13.5465
934.73	16.3463
937.623	39.4423
940.516	10.9971
943.408	21.6564
946.301	12.8044
949.194	34.0433
952.087	14.1753
954.979	8.81342
957.872	8.86902
960.765	4.00214
963.657	26.7283
966.55	4.46899
969.443	10.7327
972.335	3.06036
975.228	20.683
978.121	13.3985
981.014	32.1612
983.906	5.51721
986.799	6.78564
989.692	17.2295
992.584	4.2887
995.477	9.53632
998.37	8.25641
1001.26	1.7337
1004.15	8.10089
1007.05	16.5824
1009.94	31.329
1012.83	15.4913
1015.73	21.8831
1018.62	9.82483
1021.51	19.4074
1024.4	1.89087
1027.3	17.9814
1030.19	14.385
1033.08	26.7199
1035.97	13.3638
1038.87	10.8497
1041.76	29.1772
1044.65	41.6453
1047.55	17.0797
1050.44	23.7765
1053.33	12.5486
1056.22	7.90765
1059.12	0.411499
1062.01	10.7614
1064.9	26.1462
1067.8	21.5475
1070.69	15.5763
1073.58	19.7499
1076.47	21.7101
1079.37	21.9868
1082.26	4.9035
1085.15	20.2956
1088.04	4.68994
1090.94	4.22308
1093.83	10.9019
1096.72	10.778
1099.61	21.9288
1102.51	30.0566
1105.4	25.9477
1108.29	30.5778
1111.18	35.0799
1114.08	30.6874
1116.97	22.5569
1119.86	21.8326
1122.76	24.4898
1125.65	17.2493
1128.54	21.1812
1131.43	9.4046
1134.33	24.7878
1137.22	17.7875
1140.11	11.8922
1143.01	25.7374
1145.9	34.1444
1148.79	4.17175
1151.68	10.5344
1154.58	3.57385
1157.47	4.67566
1160.36	2.72607
1163.25	33.84
1166.15	24.9372
1169.04	29.2455
1171.93	34.5749
1174.82	10.0358
1177.72	3.51556
1180.61	5.37952
1183.5	11.7624
1186.39	30.7061
1189.29	28.0703
1192.18	25.4938
1195.07	28.1909
1197.97	10.7166
1200.86	2.68018
1203.75	17.1017
1206.64	12.467
1209.54	15.7897
1212.43	8.56891
1215.32	21.8372
1218.21	14.4064
1221.11	19.1142
1224	10.4503
1226.89	7.34503
1229.79	32.4722
1232.68	18.8616
1235.57	15.3858
1238.46	48.3175
1241.36	9.93451
1244.25	38.0927
1247.14	11.5696
1250.04	1.99365
1252.93	11.9794
1255.82	34.506
1258.71	0
