Measurement: Raman, 532 nm, unoriented, Raman Data Processed
Mineral: Naumannite
Rruff sample: R070505
Ideal chemistry: Ag^1+^_2_Se^2-^
Locality: DeLamar mine, Silver City District, Owyhee County, Idaho, USA
Source: James Shigley
Description: Dark gray metallic massive
Raman shift (cm-1)	intensity
157.387	0
160.28	73.3848
163.173	107.573
166.065	119.215
168.958	46.9324
171.851	81.6169
174.743	7.01733
177.636	59.4172
180.529	73.1081
183.421	12.8467
186.314	42.6643
189.207	28.5625
192.1	74.9243
194.992	35.3809
197.885	11.7029
200.778	15.9187
203.67	85.0796
206.563	4.29932
209.456	24.8147
212.348	55.3787
215.241	34.6824
218.134	42.0022
221.026	69.6973
223.919	76.23
226.812	59.4153
229.705	78.1526
232.597	31.6819
235.49	15.6448
238.383	8.15869
241.275	40.169
244.168	61.1074
247.061	29.7293
249.954	29.4595
252.846	38.1592
255.739	55.0369
258.632	56.9145
261.524	15.3291
264.417	11.0195
267.31	47.7336
270.202	52.3833
273.095	30.3689
275.988	19.9077
278.881	34.9712
281.773	33.9683
284.666	31.8848
287.559	31.2856
290.451	31.1736
293.344	1.1394
296.237	15.4893
299.13	30.0852
302.022	36.0076
304.915	64.9141
307.808	35.2222
310.7	25.3701
313.593	61.3545
316.486	31.4248
319.378	74.8325
322.271	40.7607
325.164	54.7952
328.057	71.7366
330.949	90.3186
333.842	80.1834
336.735	14.4219
339.627	53.8708
342.52	69.0212
345.413	16.4463
348.305	40.9846
351.198	44.3318
354.091	92.9099
356.983	74.3518
359.876	39.4834
362.769	34.6987
365.662	59.2258
368.554	20.4399
371.447	12.6621
374.34	34.6653
377.232	32.8569
380.125	41.8882
383.018	43.647
385.911	71.7507
388.803	24.2019
391.696	50.896
394.589	70.6274
397.481	36.3137
400.374	55.2109
403.267	2.05615
406.159	40.5405
409.052	41.6323
411.945	58.8262
414.837	13.0171
417.73	23.4634
420.623	55.9302
423.516	49.2302
426.408	13.572
429.301	79.4983
432.194	10.8364
435.086	51.4648
437.979	38.8445
440.872	99.8425
443.764	5.97461
446.657	4.08838
449.55	42.1638
452.443	28.9197
455.335	61.6016
458.228	77.4001
461.121	55.4417
464.014	29.6448
466.906	45.3237
469.799	42.6128
472.692	41.5044
475.584	21.0727
478.477	11.9529
481.37	33.3396
484.262	6.83032
487.155	11.8684
490.048	67.1968
492.94	65.4409
495.833	68.0019
498.726	10.4612
501.619	21.2493
504.511	12.5076
507.404	41.1492
510.297	68.126
513.189	23.9104
516.082	59.7205
518.975	106.001
521.867	79.1826
524.76	40.6575
527.653	53.0972
530.546	87.3586
533.438	53.7761
536.331	81.9285
539.224	28.3235
542.116	70.689
545.009	45.9875
547.902	71.5627
550.794	23.8579
553.687	63.824
556.58	54.9756
559.473	84.8574
562.365	41.886
565.258	56.2764
568.151	65.3525
571.043	43.5427
573.936	26.4092
576.829	60.4531
579.721	78.894
582.614	11.4797
585.507	15.8081
588.4	42.8967
591.292	40.876
594.185	21.6106
597.078	44.7581
599.97	26.033
602.863	7.93848
605.756	40.8293
608.649	45.9832
611.541	37.169
614.434	48.2766
617.327	19.5757
620.219	35.1445
623.112	17.5835
626.005	35.0205
628.897	21.885
631.79	49.5327
634.683	3.80664
637.576	55.8821
640.468	1.12573
643.361	15.1702
646.254	74.9028
649.146	3.84277
652.039	30.5456
654.932	28.7786
657.824	25.4026
660.717	48.0293
663.61	7.0564
666.503	75.1985
669.395	50.9099
672.288	41.0161
675.181	5.74072
678.073	40.2263
680.966	12.7068
683.859	40.3789
686.751	57.4783
689.644	77.6665
692.537	53.9329
695.43	89.6816
698.322	39.1157
701.215	33.8696
704.108	97.5222
707	18.0859
709.893	14.2532
712.786	49.6279
715.678	24.7349
718.571	14.9126
721.464	24.3208
724.357	23.8406
727.249	57.4785
730.142	32.812
733.035	33.3733
735.927	56.2915
738.82	35.1187
741.713	23.5732
744.606	54.8064
747.498	68.6631
750.391	3.94385
753.284	32.5754
756.176	17.0859
759.069	11.8008
761.962	54.7688
764.854	53.3088
767.747	9.7439
770.64	50.6912
773.533	56.9089
776.425	20.6352
779.318	57.9314
782.211	26.3855
785.103	44.3899
787.996	74.0593
790.889	38.3904
793.781	10.7437
796.674	17.4106
799.567	19.7761
802.46	44.9214
805.352	0.866455
808.245	0.855469
811.138	21.9277
814.03	87.5854
816.923	18.0981
819.816	25.0269
822.708	6.36353
825.601	48.5256
828.494	77.4492
831.386	50.5154
834.279	38.2424
837.172	10.9211
840.065	23.8462
842.957	8.9209
845.85	50.7356
848.743	110.325
851.635	38.4893
854.528	57.0288
857.421	35.5996
860.313	78.739
863.206	34.8355
866.099	57.1685
868.992	70.7109
871.884	41.0828
874.777	24.9185
877.67	63.2068
880.562	59.1499
883.455	106.001
886.348	24.1794
889.24	32.3467
892.133	86.2842
895.026	83.895
897.919	45.0505
900.811	12.8389
903.704	41.125
906.597	69.8474
909.489	76.1865
912.382	49.6577
915.275	47.29
918.168	61.9253
921.06	28.8169
923.953	70.5833
926.846	58.438
929.738	57.4504
932.631	2.6355
935.524	1.7605
938.416	24.0903
941.309	29.8154
944.202	27.3862
947.095	10.4185
949.987	44.2954
952.88	17.3003
955.773	31.9302
958.665	44.398
961.558	26.9866
964.451	45.9387
967.343	40.3953
970.236	52.7126
973.129	40.5049
976.021	73.3882
978.914	41.4014
981.807	15.779
984.7	50.582
987.592	18.9485
990.485	57.9194
993.378	45.2302
996.27	29.7275
999.163	25.3169
1002.06	44.9119
1004.95	35.7424
1007.84	12.897
1010.73	85.3286
1013.63	52.5986
1016.52	39.7173
1019.41	24.5781
1022.3	19.0955
1025.2	28.5398
1028.09	53.9958
1030.98	92.0591
1033.88	53.8508
1036.77	52.7419
1039.66	15.6023
1042.55	33.9526
1045.45	61.9219
1048.34	68.9617
1051.23	66.3713
1054.12	11.4153
1057.02	43.6355
1059.91	41.8909
1062.8	58.2864
1065.69	96.8289
1068.59	54.8955
1071.48	67.5647
1074.37	88.2087
1077.27	23.4539
1080.16	4.98169
1083.05	73.2693
1085.94	63.7249
1088.84	42.7737
1091.73	29.6335
1094.62	21.0395
1097.52	74.6748
1100.41	50.4102
1103.3	54.1084
1106.19	13.3577
1109.09	22.8833
1111.98	44.0398
1114.87	60.1694
1117.76	36.4624
1120.66	75.166
1123.55	132.542
1126.44	31.405
1129.34	46.7959
1132.23	30.7639
1135.12	43.4648
1138.01	45.1987
1140.91	5.75708
1143.8	67.1992
1146.69	10.1018
1149.58	79.0422
1152.48	27.4507
1155.37	26.2021
1158.26	7.7915
1161.15	18.4011
1164.05	42.585
1166.94	70.1008
1169.83	53.2598
1172.72	0.236328
1175.62	26.396
1178.51	54.6941
1181.4	76.9981
1184.3	65.2883
1187.19	60.0964
1190.08	39.9231
1192.97	52.1128
1195.87	30.2041
1198.76	1.60474
1201.65	55.7803
1204.55	1.69287
1207.44	57.4368
1210.33	60.8967
1213.22	38.5024
1216.12	135.496
1219.01	82.9795
1221.9	91.6235
1224.79	104.413
1227.69	13.073
1230.58	37.7214
1233.47	43.8635
1236.37	34.0915
1239.26	40.7766
1242.15	39.6956
1245.04	9.22046
1247.94	88.1997
1250.83	40.4644
1253.72	49.6543
1256.61	34.6013
1259.51	48.7151
1262.4	34.5132
1265.29	72.821
1268.18	70.2454
1271.08	40.4321
1273.97	3.85107
1276.86	40.5586
1279.76	34.188
1282.65	41.9885
1285.54	2.50903
1288.43	8.11108
1291.33	12.9614
