Measurement: Raman, 780 nm, unoriented, Raman Data Processed
Mineral: Neighborite
Rruff sample: R080108
Ideal chemistry: NaMgF_3_
Locality: Mont Saint-Hilaire, Quebec, Canada
Source: William W. Pinch
Description: Translucent brown zoned pseudocubic crystals associated with calcite and clinoenstatite
Raman shift (cm-1)	intensity
105.058	0
108.433	5.86865
111.808	20.3955
115.183	8.83643
118.558	20.085
121.933	16.9688
125.307	23.1777
128.682	31.0024
132.057	0.901855
135.432	10.7759
138.807	15.2031
142.181	2.30566
145.556	16.5664
148.931	18.5132
152.306	27.3027
155.681	33.0635
159.055	22.3506
162.43	26.9014
165.805	40.1846
169.18	50.2139
172.555	59.249
175.93	47.9297
179.304	42.6836
182.679	42.2197
186.054	31.2344
189.429	31.0781
192.804	43.998
196.179	18.334
199.553	31.4053
202.928	20.5264
206.303	45.2705
209.678	53.0605
213.053	44.1807
216.427	38.8301
219.802	58.2764
223.177	48.1367
226.552	43.9268
229.927	50.4922
233.302	30.4014
236.676	17.9268
240.051	24.9424
243.426	14.8623
246.801	17.2734
250.176	19.7383
253.55	22.0371
256.925	7.15234
260.3	22.0586
263.675	9.67773
267.05	8.83008
270.425	9.92188
273.799	13.208
277.174	8.85254
280.549	12.1328
283.924	27.1865
287.299	15.8223
290.673	15.8857
294.048	38.2363
297.423	24.71
300.798	4.13281
304.173	11.4658
307.548	5.79297
310.922	10.6426
314.297	8.65918
317.672	27.8037
321.047	44.7803
324.421	32.0947
327.796	37.9033
331.171	43.8535
334.546	27.7002
337.921	53.9912
341.296	49.4209
344.67	49.4316
348.045	58.0654
351.42	53.9883
354.795	41.915
358.17	39.9043
361.545	40.1113
364.919	25.9189
368.294	21.124
371.669	46.0742
375.044	23.2949
378.419	38.5039
381.793	15.6455
385.168	11.2812
388.543	0.233398
391.918	7.02734
395.293	12.3877
398.668	18.4658
402.042	3.83789
405.417	11.8799
408.792	7.49707
412.167	23.5566
415.542	4.65039
418.916	3.57422
422.291	45.4512
425.666	47.9395
429.041	48.7764
432.416	42.7334
435.791	41.999
439.165	31.5967
442.54	48.6895
445.915	39.0518
449.29	43.1348
452.665	31.7041
456.039	52.3379
459.414	60.375
462.789	69.9502
466.164	71.4219
469.539	90.5918
472.913	111.051
476.288	65.6025
479.663	68.0547
483.038	59.6836
486.413	51.0527
489.788	62.582
493.162	54.623
496.537	60.4893
499.912	41.9316
503.287	13.5264
506.662	45.6904
510.036	28.5254
513.411	27.6494
516.786	45.7871
520.161	62.7353
523.536	34.1162
526.91	20.6055
530.285	20.9863
533.66	9.37988
537.035	14.1191
540.41	7.16699
543.785	11.8066
547.159	21.5928
550.534	19.4072
553.909	0.274414
557.284	24.748
560.659	27.7549
564.034	2.07715
567.408	16.7988
570.783	24.2715
574.158	24.1758
577.533	14.0312
580.908	6.26562
584.282	12.291
587.657	48.1807
591.032	33.1953
594.407	16.4893
597.782	14.8496
601.156	17.3594
604.531	25.9883
607.906	35.2607
611.281	17.748
614.656	19.876
618.03	29.0342
621.405	31.2812
624.78	92.1133
628.155	43.919
631.53	31.168
634.905	35.6221
638.279	10.1191
641.654	41.4395
645.029	24.3877
648.404	68.0859
651.779	26.7461
655.154	11.5029
658.528	29.7568
661.903	34.04
665.278	24.0127
668.653	35.2188
672.028	29.6572
675.402	15.6113
678.777	11.2207
682.152	26.8027
685.527	32.2842
688.902	7.72461
692.277	26.585
695.651	24.8721
699.026	24.8711
702.401	25.4453
705.776	15.1787
709.151	30.5928
712.525	36.1924
715.9	36.1387
719.275	37.4766
722.65	9.66699
726.025	9.49707
729.399	0.020508
732.774	18.4824
736.149	14.5879
739.524	14.8477
742.899	13.9023
746.274	12.0029
749.648	26.7715
753.023	13.4463
756.398	0.483398
759.773	18.7461
763.148	9.07422
766.523	22.252
769.897	17.3271
773.272	0.47168
776.647	16.3936
780.022	0.435547
783.396	37.709
786.771	13.1787
790.146	1.82129
793.521	2.05859
796.896	35.4092
800.271	49.9443
803.645	16.876
807.02	68.0644
810.395	37.7685
813.77	42.6865
817.145	61.0879
820.519	25.3184
823.894	30.4297
827.269	36.0869
830.644	62.0147
834.019	54.4727
837.394	38.3525
840.768	62.2842
844.143	31.0479
847.518	40.957
850.893	19.4668
854.268	44.6387
857.643	39.7461
861.017	42.0596
864.392	53.4014
867.767	47.9443
871.142	15.7031
874.517	64.0312
877.891	18.1094
881.266	23.3281
884.641	45.0889
888.016	14.915
891.391	21.4766
894.765	19.5273
898.14	33.6084
901.515	31.8672
904.89	12.3867
908.265	6.20312
911.64	5.92481
915.014	23.4941
918.389	31.9854
921.764	30.2422
925.139	34.8506
928.514	50.2012
931.888	35.2978
935.263	23.8926
938.638	29.4531
942.013	35.6084
945.388	55.0185
948.763	38.3408
952.137	58.2148
955.512	41.25
958.887	34.8574
962.262	9.5918
965.637	21.5166
969.011	17.2881
972.386	22.2324
975.761	20.1006
979.136	1.88965
982.511	10.0264
985.885	14.9121
989.26	47.0176
992.635	7.69629
996.01	49.0342
999.385	40.6113
1002.76	15.9258
1006.13	18.9092
1009.51	28.5898
1012.88	36.7891
1016.26	30.6211
1019.63	25.1172
1023.01	51.1055
1026.38	54.0693
1029.76	53.1045
1033.13	54.4658
1036.51	69.8193
1039.88	78.6367
1043.26	57.7715
1046.63	58.3711
1050.01	72.9639
1053.38	60.9522
1056.76	53.8096
1060.13	85.1045
1063.51	49.4658
1066.88	57.6709
1070.26	50.0322
1073.63	51.9815
1077.01	74.7275
1080.38	57.1201
1083.76	54.6328
1087.13	38.4727
1090.51	52.2949
1093.88	53.1777
1097.25	47.3486
1100.63	49.168
1104	0.070313
1107.38	0.235352
1110.75	7.15039
1114.13	12.2812
1117.5	10.792
1120.88	10.6592
1124.25	12.0625
1127.63	9.04785
1131	2.88672
1134.38	6.73828
1137.75	12.7666
1141.13	19.9736
1144.5	10.0576
1147.88	13.706
1151.25	33.6318
1154.63	41.1182
1158	51.8086
1161.38	39.8213
1164.75	55.2412
1168.13	58.544
1171.5	42.9756
1174.88	95.6055
1178.25	78.1152
1181.62	78.8447
1185	82.124
1188.38	79.29
1191.75	62.7207
1195.12	56.7158
1198.5	54.626
1201.87	67.1602
1205.25	47.8096
1208.62	48.4775
1212	35.1416
1215.37	43.5264
1218.75	31.9795
1222.12	27.75
1225.5	20.6416
1228.87	29.6572
1232.25	9.45703
1235.62	6.78516
1239	3.67383
1242.37	11.6016
1245.75	30.1621
1249.12	1.82617
1252.5	21.7754
1255.87	25.5654
1259.25	10.1768
1262.62	4.45801
1265.99	21.8564
1269.37	11.6523
1272.74	6.60644
