Measurement: Raman, 532 nm, unoriented, Raman Data Processed
Mineral: Nepouite
Rruff sample: R120106
Ideal chemistry: Ni^2+^_3_Si_2_O_5_(OH)_4_
Locality: Nepoui mine, New Caledonia
Source: Bill & Sandy Bowman
Description: Green fine-grained massive associated with quartz
Raman shift (cm-1)	intensity
234.645	15471.9
237.538	15529.5
240.43	15544.7
243.323	15570.4
246.216	15644.3
249.109	15707.8
252.001	15786.7
254.894	15845.2
257.787	15905.3
260.679	15952.9
263.572	15988.4
266.465	16020.6
269.358	16120.6
272.25	16190.3
275.143	16252.5
278.036	16328.1
280.928	16348.5
283.821	16270.1
286.714	16293.8
289.606	16346.6
292.499	16399.1
295.392	16437.8
298.284	16478.5
301.177	16499
304.07	16615.8
306.963	16624.6
309.855	16645.3
312.748	16689.6
315.641	16730.8
318.533	16758.8
321.426	16736.1
324.319	16789.3
327.212	16817.4
330.104	16853.7
332.997	16857
335.89	16965.3
338.782	17013.7
341.675	17001.9
344.568	16967.8
347.46	17082.7
350.353	17098.7
353.246	17206.1
356.139	17258.6
359.031	17264.6
361.924	17311.6
364.817	17331.7
367.709	17315.9
370.602	17331.8
373.495	17370
376.387	17378.4
379.28	17359.3
382.173	17393.1
385.065	17452
387.958	17484.7
390.851	17480.5
393.744	17496.3
396.636	17548.6
399.529	17569.8
402.422	17619.7
405.314	17633
408.207	17695.5
411.1	17716.5
413.993	17791
416.885	17791.9
419.778	17756
422.671	17798.3
425.563	17812.1
428.456	17892.3
431.349	17916.6
434.241	17922.9
437.134	17912.7
440.027	17938.9
442.92	18000.7
445.812	18036.4
448.705	18056.1
451.598	18085.4
454.49	18082.3
457.383	18084.7
460.276	18173.2
463.168	18188
466.061	18185.7
468.954	18164
471.846	18196.8
474.739	18240.9
477.632	18256.4
480.525	18280.7
483.417	18305.5
486.31	18351.3
489.203	18362.9
492.095	18397.5
494.988	18494.8
497.881	18502.3
500.774	18489.3
503.666	18522
506.559	18497.6
509.452	18557.3
512.344	18592.5
515.237	18603
518.13	18585.5
521.022	18569.8
523.915	18689.5
526.808	18758.4
529.701	18714.4
532.593	18705.1
535.486	18719.8
538.379	18729.2
541.271	18780.8
544.164	18827.7
547.057	18849.6
549.949	18900
552.842	18911.7
555.735	18903.7
558.628	18919.7
561.52	18928
564.413	18942.7
567.306	18947.1
570.198	18948.9
573.091	18933.8
575.984	18979.8
578.876	19014.5
581.769	19085.2
584.662	19090.7
587.554	19167.6
590.447	19141
593.34	19175.5
596.232	19205.9
599.125	19166.1
602.018	19145.5
604.911	19183.7
607.803	19229.2
610.696	19309.5
613.589	19264.9
616.481	19266.5
619.374	19311.8
622.267	19325.7
625.159	19290.6
628.052	19280.8
630.945	19341.1
633.838	19406.2
636.73	19432.7
639.623	19478.5
642.516	19486.7
645.408	19504.9
648.301	19561
651.194	19601.2
654.087	19696.2
656.979	19731.1
659.872	19803.7
662.765	19844.5
665.657	19889.9
668.55	19941.2
671.443	20009.7
674.335	20113.2
677.228	20130.4
680.121	20171.9
683.014	20203.5
685.906	20206.5
688.799	20215.5
691.692	20236
694.584	20242.6
697.477	20279.6
700.37	20317.2
703.263	20251
706.155	20312.4
709.048	20395.3
711.941	20423.7
714.833	20445.4
717.726	20401.9
720.619	20421.8
723.511	20487.9
726.404	20604.1
729.297	20684
732.189	20730.7
735.082	20715.7
737.975	20723.3
740.868	20755.9
743.76	20745.8
746.653	20812.1
749.546	20838
752.438	20980.8
755.331	21063.3
758.224	21086.1
761.116	21067.3
764.009	21126.5
766.902	21151.2
769.795	21185.8
772.687	21229.3
775.58	21236.4
778.473	21319.6
781.365	21364.5
784.258	21395
787.151	21423.5
790.043	21437.4
792.936	21546.8
795.829	21559.4
798.722	21572
801.614	21617
804.507	21625.4
807.4	21715.7
810.292	21751.8
813.185	21811
816.078	21827.7
818.971	21950
821.863	22006
824.756	21970.3
827.649	22015.8
830.541	22056
833.434	22117.8
836.327	22117.1
839.219	22163.6
842.112	22201.4
845.005	22263.6
847.898	22286.4
850.79	22298.8
853.683	22388.3
856.576	22438.9
859.468	22529
862.361	22564.5
865.254	22563.8
868.146	22548
871.039	22662.8
873.932	22761.8
876.824	22760.8
879.717	22768.4
882.61	22772.7
885.503	22915.5
888.395	22984
891.288	23019.3
894.181	23044.3
897.073	23054.4
899.966	23051.9
902.859	23159.6
905.751	23230
908.644	23266.4
911.537	23293
914.43	23370.3
917.322	23422.6
920.215	23434.8
923.108	23442.9
926	23514
928.893	23531.4
931.786	23525.2
934.678	23582.4
937.571	23577.6
940.464	23686.4
943.357	23721.6
946.249	23766.9
949.142	23765.9
952.035	23843.5
954.927	23858.6
957.82	23868.3
960.713	23933.2
963.606	23953
966.498	24067.9
969.391	24149.6
972.284	24102.6
975.176	24138.5
978.069	24242.7
980.962	24301.1
983.854	24296.8
986.747	24345.5
989.64	24405.4
992.533	24480.8
995.425	24501.9
998.318	24507.2
1001.21	24582.4
1004.1	24566.3
1007	24643.9
1009.89	24682.8
1012.78	24706.5
1015.67	24756.6
1018.57	24809.1
1021.46	24937.9
1024.35	24980
1027.24	24967.3
1030.14	25021.8
1033.03	25077.1
1035.92	25172.6
1038.82	25182.8
1041.71	25174.1
1044.6	25201.7
1047.49	25218.1
1050.39	25347.8
1053.28	25404.9
1056.17	25464.8
1059.07	25501
1061.96	25523.1
1064.85	25568.8
1067.74	25601.9
1070.63	25654.2
1073.53	25593.8
1076.42	25626.2
1079.31	25641.8
1082.21	25678.4
1085.1	25772.9
1087.99	25719.6
1090.88	25795.2
1093.78	25893
1096.67	25934.3
1099.56	26006.7
1102.45	26029
1105.35	26036.3
1108.24	26011.7
1111.13	26124.8
1114.03	26164.7
1116.92	26241
1119.81	26247.1
1122.7	26283
1125.6	26270.1
1128.49	26306.2
1131.38	26323.3
1134.28	26308.9
1137.17	26419.1
1140.06	26487.2
1142.95	26491.7
1145.85	26506.4
1148.74	26570.4
1151.63	26570.2
1154.52	26621.8
1157.42	26582.8
1160.31	26606.3
1163.2	26674.7
1166.09	26733.2
1168.99	26717.8
1171.88	26775.6
1174.77	26790.3
1177.66	26818.1
1180.56	26802
1183.45	26870.4
1186.34	26947.1
1189.24	26962.5
1192.13	26970.8
1195.02	26918.8
1197.91	26974.9
1200.81	27026.7
1203.7	27036.9
1206.59	27157.8
1209.48	27246.2
1212.38	27222.6
1215.27	27226.8
1218.16	27124.4
1221.06	27146.4
1223.95	27179.9
1226.84	27247.7
1229.73	27220
1232.63	27211.2
1235.52	27211.5
1238.41	27227.3
1241.31	27275.3
1244.2	27351.2
1247.09	27326.5
1249.98	27350.3
1252.88	27407.3
1255.77	27370.2
1258.66	27481.4
1261.55	27533.3
1264.45	27539.2
1267.34	27516.8
1270.23	27558.8
1273.12	27567.8
1276.02	27730.2
1278.91	27638.1
1281.8	27614.7
1284.69	27632.5
1287.59	27699.8
1290.48	27693.8
1293.37	27693.4
1296.27	27764.8
1299.16	27817.8
1302.05	27716.4
