Measurement: Raman, 532 nm, unoriented, Raman Data Processed
Mineral: Nesquehonite
Rruff sample: R070764
Ideal chemistry: MgCO_3_3H_2_O
Locality: Tucson, Arizona, USA from the interior of a rotting saguaro cactus
Source: Hexiong Yang
Description: Aggregates of light brown platy crystals
Raman shift (cm-1)	intensity
142.976	0
146.351	32.0005
149.725	4.45752
153.1	16.1179
156.475	32.1809
159.85	90.0078
163.225	72.8457
166.6	84.2915
169.974	87.5483
173.349	89.0049
176.724	92.5698
180.099	88.7109
183.474	42.5566
186.848	67.603
190.223	33.1494
193.598	39.3223
196.973	28.5596
200.348	30.7827
203.722	32.7192
207.097	11.9868
210.472	44.7368
213.847	70.3301
217.222	47.3442
220.597	11.9385
223.971	4.00391
227.346	1.90527
230.721	49.3218
234.096	11.5771
237.471	41.9937
240.845	43.3643
244.22	2.40381
247.595	44.1519
250.97	79.6812
254.345	11.2319
257.719	51.9824
261.094	46.3198
264.469	10.3735
267.844	7.79102
271.219	47.7881
274.594	39.0122
277.968	61.332
281.343	15.1538
284.718	109.394
288.093	18.7803
291.468	36.6074
294.842	11.8096
298.217	31.3198
301.592	51.4805
304.967	18.8975
308.342	46.0864
311.717	37.5488
315.091	25.8076
318.466	39.9136
321.841	41.602
325.216	5.98389
328.591	51.9102
331.966	35.6631
335.34	13.8604
338.715	46.4048
342.09	0.90625
345.465	27.4302
348.84	9.89209
352.214	5.51416
355.589	6.65869
358.964	17.7402
362.339	40.019
365.714	51.7324
369.089	49.2036
372.463	46.6245
375.838	52.9966
379.213	69.4834
382.588	35.4277
385.963	33.7026
389.337	46.4185
392.712	36.9072
396.087	27.5596
399.462	5.60303
402.837	57.4849
406.212	61.2905
409.586	31.6157
412.961	37.2427
416.336	59.5679
419.711	0.96875
423.086	42.1509
426.46	39.2759
429.835	43.0815
433.21	35.4355
436.585	2.42871
439.96	34.3672
443.334	84.5435
446.709	34.7651
450.084	22.2075
453.459	58.3408
456.834	83.4321
460.209	46.5147
463.583	57.6728
466.958	75.9263
470.333	20.5767
473.708	40.1665
477.083	52.1304
480.457	31.7329
483.832	70.9023
487.207	65.0195
490.582	23.5029
493.957	49.2451
497.332	33.3794
500.706	55.4009
504.081	46.773
507.456	6.92676
510.831	8.53223
514.206	20.9658
517.58	19.2417
520.955	6.55566
524.33	40.2051
527.705	11.3599
531.08	7.49023
534.455	69.1323
537.829	33.5889
541.204	38.1694
544.579	78.7705
547.954	53.6841
551.329	38.085
554.703	69.2969
558.078	46.5874
561.453	50.5171
564.828	24.9814
568.203	19.773
571.577	15.6919
574.952	52.751
578.327	35.6875
581.702	4.35449
585.077	49.4878
588.452	58.2129
591.826	46.2197
595.201	40.9228
598.576	20.4185
601.951	24.9136
605.326	71.2188
608.701	74.1548
612.075	39.1641
615.45	105.221
618.825	93.7314
622.2	26.8057
625.575	6.10254
628.949	66.1909
632.324	30.5488
635.699	74.2363
639.074	48.9941
642.449	21.0835
645.823	28.873
649.198	15.5352
652.573	0.525879
655.948	35.9419
659.323	50.0068
662.698	61.6973
666.072	71.8613
669.447	6.00391
672.822	66.6528
676.197	45.9795
679.572	60.0107
682.947	77.6665
686.321	40.2017
689.696	52.916
693.071	2.3169
696.446	70.9209
699.821	79.4863
703.195	56.0649
706.57	42.3276
709.945	78.4365
713.32	0.354004
716.695	39.0093
720.069	40.6274
723.444	54.294
726.819	1.21728
730.194	53.1562
733.569	9.1831
736.943	25.062
740.318	51.1348
743.693	21.1562
747.068	32.8145
750.443	40.6855
753.818	23.0205
757.192	32.3389
760.567	53.4297
763.942	70.7647
767.317	57.127
770.692	72.3789
774.067	33.4941
777.441	13.5537
780.816	13.2988
784.191	86.2881
787.566	23.6787
790.941	77.9609
794.315	6.19336
797.69	28.1797
801.065	45.8008
804.44	64.6416
807.815	35.1445
811.189	53.9541
814.564	6.8125
817.939	21.8486
821.314	26.8037
824.689	33.1514
828.064	29.1729
831.438	21.4072
834.813	64.0137
838.188	12.4912
841.563	83.8711
844.938	50.9648
848.312	28.4922
851.687	18.8838
855.062	75.1406
858.437	39.4922
861.812	40.9395
865.187	45.168
868.561	57.2227
871.936	69.7949
875.311	44.0098
878.686	105.389
882.061	28.5801
885.436	40.2842
888.81	32.3213
892.185	80.0381
895.56	20.5166
898.935	29.5605
902.31	49.9707
905.684	39.0352
909.059	2.25488
912.434	11.5098
915.809	54.0205
919.184	62.8281
922.558	83.0205
925.933	50.4893
929.308	68.6494
932.683	59.0332
936.058	68.4619
939.433	18.6738
942.807	44.2139
946.182	80.1719
949.557	21.6611
952.932	12.6328
956.307	14.9775
959.682	39.2734
963.056	11.3926
966.431	30.8486
969.806	10.6924
973.181	74.5137
976.556	72.75
979.93	26.9277
983.305	103.248
986.68	36.3926
990.055	96.1836
993.43	66.04
996.804	42.9463
1000.18	31.1953
1003.55	38.9678
1006.93	34.7764
1010.3	59.502
1013.68	23.3652
1017.05	29.5596
1020.43	30.7344
1023.8	5.31641
1027.18	48.6367
1030.55	73.6865
1033.93	33.2725
1037.3	95.8516
1040.68	6.43359
1044.05	38.169
1047.43	13.7188
1050.8	0.833008
1054.18	62.2432
1057.55	36.751
1060.93	64.1953
1064.3	26.627
1067.68	6.82422
1071.05	43.3379
1074.42	33.7852
1077.8	8.90527
1081.17	80.2734
1084.55	66.7148
1087.92	126.026
1091.3	126.289
1094.67	274.238
1098.05	345.749
1101.42	341.317
1104.8	229.922
1108.17	145.243
1111.55	51.2773
1114.92	90.7012
1118.3	43.6553
1121.67	14.2676
1125.05	48.4346
1128.42	60.3398
1131.8	20.4668
1135.17	60.3272
1138.55	83.2588
1141.92	41.9033
1145.3	36.5117
1148.67	61.8389
1152.05	5.25293
1155.42	27.7402
1158.8	67.625
1162.17	93.4248
1165.55	53.0361
1168.92	82.959
1172.3	80.7158
1175.67	73.7441
1179.05	43.0996
1182.42	28.3818
1185.79	2.22461
1189.17	61.6787
1192.54	83.2295
1195.92	65.5918
1199.29	29.6836
1202.67	5.66113
1206.04	50.0986
1209.42	29.4824
1212.79	79.9004
1216.17	41.5742
1219.54	18.3398
1222.92	107.561
1226.29	72.4365
1229.67	66.4512
1233.04	105.749
1236.42	52.6318
1239.79	50.5312
1243.17	13.1475
1246.54	86.3477
1249.92	21.4658
1253.29	25.2617
1256.66	89.8984
1260.04	102.587
1263.41	36.4326
1266.79	82.8965
1270.16	85.1201
1273.54	45.7139
1276.91	94.583
1280.29	18.21
1283.66	82.4609
1287.04	69.2353
1290.41	72.0019
1293.79	95.9277
1297.16	75.54
1300.54	61.6738
1303.91	12.4238
