Measurement: Raman, 780 nm, unoriented, Raman Data Processed
Mineral: Nesquehonite
Rruff sample: R070764
Ideal chemistry: MgCO_3_3H_2_O
Locality: Tucson, Arizona, USA from the interior of a rotting saguaro cactus
Source: Hexiong Yang
Description: Aggregates of light brown platy crystals
Raman shift (cm-1)	intensity
141.699	0
144.592	24.3682
147.485	12.6396
150.377	7.13574
153.27	27.3467
156.163	29.5811
159.055	50.8291
161.948	49.2168
164.841	34.3242
167.734	63.0674
170.626	67.6914
173.519	112.078
176.412	56.584
179.304	50.4404
182.197	93.4102
185.09	73.8467
187.982	137.033
190.875	95.7783
193.768	151.177
196.661	60.5547
199.553	90.8506
202.446	32.5264
205.339	30.1885
208.231	83.5459
211.124	66.3418
214.017	131.403
216.91	119.339
219.802	71.9424
222.695	25.7725
225.588	111.798
228.48	1.1875
231.373	59.248
234.266	66.8691
237.158	87.2627
240.051	45.0791
242.944	55.8438
245.837	41.4863
248.729	55.5664
251.622	30.9785
254.515	70.6211
257.407	3.82227
260.3	102.343
263.193	91.4883
266.085	12.2168
268.978	39.6885
271.871	80.1201
274.764	33.6377
277.656	10.54
280.549	31.8262
283.442	113.304
286.334	89.6748
289.227	85.1016
292.12	84.0938
295.012	41.6572
297.905	29.6045
300.798	95.1797
303.69	104.463
306.583	26.3135
309.476	99.8897
312.369	59.2158
315.261	26.9482
318.154	76.1064
321.047	124.368
323.939	113.639
326.832	148.345
329.725	23.0986
332.618	109.64
335.51	59.1836
338.403	75.5918
341.296	93.2002
344.188	106.596
347.081	82.2861
349.974	53.6777
352.866	92.7783
355.759	6.35742
358.652	15.2734
361.545	0.739258
364.437	98.6289
367.33	41.5742
370.223	49.9473
373.115	20.4023
376.008	55.666
378.901	35.0625
381.793	48.3057
384.686	8.69336
387.579	24.6299
390.471	98.5068
393.364	51.3887
396.257	82.7481
399.15	14.4297
402.042	115.676
404.935	25.5498
407.828	60.3838
410.72	54.8789
413.613	79.709
416.506	16.877
419.399	53.7441
422.291	96.5801
425.184	50.9648
428.077	96.458
430.969	85.5869
433.862	139.913
436.755	69
439.647	115.427
442.54	107.363
445.433	61.2168
448.325	92.4736
451.218	117.622
454.111	38.6406
457.004	86.7734
459.896	170.401
462.789	104.158
465.682	188.981
468.574	92.5625
471.467	128.888
474.36	110.176
477.252	76.626
480.145	115.93
483.038	74.6367
485.931	67.167
488.823	109.303
491.716	61.4453
494.609	119.507
497.501	58.7891
500.394	153.772
503.287	59.7393
506.18	62.8652
509.072	97.5654
511.965	143.601
514.858	69.2559
517.75	103.433
520.643	68.4082
523.536	67.2353
526.428	20.4355
529.321	0.923828
532.214	27.1123
535.106	5.47461
537.999	5.51367
540.892	4.77051
543.785	23.9873
546.677	17.3428
549.57	27.3682
552.463	38.3232
555.355	13.2588
558.248	109.23
561.141	33.6465
564.034	37.0322
566.926	49.6758
569.819	55.2031
572.712	47.9033
575.604	38.1338
578.497	4.24609
581.39	30.916
584.282	48.874
587.175	103.509
590.068	72.7656
592.96	82.6982
595.853	68.4424
598.746	102.981
601.639	44.7402
604.531	131.35
607.424	50.1777
610.317	113.654
613.209	58.2988
616.102	80.4248
618.995	76.3057
621.888	107.956
624.78	61.0732
627.673	78.9873
630.566	1.27539
633.458	42.4727
636.351	25.0518
639.244	99.4228
642.136	73.1836
645.029	116.775
647.922	35.7754
650.814	27.6055
653.707	85.1992
656.6	13.1006
659.493	113.007
662.385	98.1856
665.278	52.6348
668.171	82.0352
671.063	66.0186
673.956	59.7451
676.849	24.375
679.741	58.7217
682.634	69.1113
685.527	52.6904
688.42	31.7275
691.312	17.5225
694.205	44.3623
697.098	61.2588
699.99	59.209
702.883	87.1182
705.776	24.8311
708.668	95.8633
711.561	81.8438
714.454	83.1836
717.347	32.1504
720.239	14.1357
723.132	77.7314
726.025	29.208
728.917	44.2637
731.81	10.9512
734.703	22.9697
737.596	104.029
740.488	88.2988
743.381	87.9453
746.274	18.3291
749.166	28.0645
752.059	90.9746
754.952	64.8525
757.844	41.7803
760.737	47.5723
763.63	33.1348
766.523	27.6133
769.415	6.88672
772.308	56.1143
775.201	60.251
778.093	34.2207
780.986	35.3613
783.879	81.7178
786.771	46.8574
789.664	30.333
792.557	51.4004
795.449	94.2842
798.342	13.0244
801.235	69.334
804.128	105.189
807.02	121.484
809.913	46.417
812.806	6.29492
815.698	94.5576
818.591	74.0205
821.484	70.3643
824.376	79.0713
827.269	73.7519
830.162	101.894
833.055	86.2031
835.947	101.099
838.84	18.5391
841.733	57.793
844.625	82.1621
847.518	103.356
850.411	104.539
853.303	94.4297
856.196	68.7432
859.089	57.4912
861.982	45.8154
864.874	39.0772
867.767	115.881
870.66	114.114
873.552	31.5977
876.445	90.1103
879.338	105.998
882.231	87.0127
885.123	77.5039
888.016	0.938477
890.909	117.107
893.801	15.9883
896.694	114.669
899.587	5.4082
902.479	68.8672
905.372	73.6797
908.265	12.918
911.158	10.2891
914.05	42.0527
916.943	25.0723
919.836	96.083
922.728	38.7148
925.621	84.1357
928.514	84.1397
931.406	70.2441
934.299	67.2998
937.192	58.6846
940.084	7.62109
942.977	87.9922
945.87	46.5137
948.763	95.2832
951.655	71.3154
954.548	20.6484
957.441	88.1357
960.333	20.9961
963.226	84.1816
966.119	46.6367
969.011	56.6699
971.904	30.3037
974.797	48.0625
977.689	1.50195
980.582	39.417
983.475	22.9854
986.368	53.4053
989.26	33.5391
992.153	35.3789
995.046	53.4307
997.938	35.3203
1000.83	54.6309
1003.72	56.3115
1006.62	77.9365
1009.51	39.6006
1012.4	40.1875
1015.29	94.332
1018.19	25.5723
1021.08	9.92285
1023.97	18.0459
1026.87	91.8037
1029.76	51.1084
1032.65	62.9258
1035.54	84.7519
1038.44	35.1309
1041.33	84.082
1044.22	36.8447
1047.11	6.91016
1050.01	83.2725
1052.9	56.5596
1055.79	90.541
1058.68	47.8398
1061.58	77.0606
1064.47	85.7686
1067.36	1.97559
1070.26	63.6299
1073.15	18.1172
1076.04	60.54
1078.93	64.3769
1081.83	81.3584
1084.72	6.19043
1087.61	104.451
1090.51	75.9072
1093.4	150.395
1096.29	175.519
1099.18	204.995
1102.08	143.906
1104.97	92.7881
1107.86	42.2617
1110.75	55.1777
1113.65	11.4658
1116.54	51.2363
1119.43	26.873
1122.32	9.87109
1125.22	57.9531
1128.11	13.3262
1131	75.7217
1133.89	39.8799
1136.79	25.8428
1139.68	14.4502
1142.57	10.1221
1145.47	15.7685
1148.36	60.6494
1151.25	29.3867
1154.14	77.6367
1157.04	73.4482
1159.93	56.667
1162.82	26.1943
1165.71	69.2764
1168.61	34.1768
1171.5	50.706
1174.39	57.1484
1177.29	47.1025
1180.18	95.0381
1183.07	126.051
1185.96	88.3144
1188.86	65.8457
1191.75	51.8135
1194.64	47.1553
1197.54	43.8555
1200.43	19.708
1203.32	90.7236
1206.21	37.124
1209.11	3.19629
1212	9.21582
1214.89	30.8154
1217.78	39.8857
1220.68	47.748
1223.57	11.9473
1226.46	23.7969
1229.35	38.665
1232.25	19.0908
1235.14	9.08105
1238.03	47.5107
1240.92	24.5918
1243.82	56.501
1246.71	77.8096
1249.6	38.4688
1252.5	20.0215
1255.39	33.1855
1258.28	5
1261.17	10.2549
1264.07	40.6348
1266.96	40.3555
1269.85	12.46
1272.74	35.5195
1275.64	5.61328
1278.53	42.1328
1281.42	0.019531
1284.32	35.6484
