Measurement: Raman, 780 nm, unoriented, Raman Data Processed
Mineral: Neyite
Rruff sample: R100116
Ideal chemistry: Ag^1+^_2_Cu^1+^_6_Pb^2+^_25_Bi^3+^_26_S^2-^_68_
Locality: Southwest end of pit, British Columbia Molybdenum mine, Kitsault, British Columbia, Canada
Source: Robert Woodside
Description: Unconsolidated lead-gray elongated crystals with stepped surfaces
Raman shift (cm-1)	intensity
145.727	0
148.62	1.5288
151.512	0.840935
154.405	1.3175
157.298	0.828815
160.19	2.82666
163.083	1.22268
165.976	2.28109
168.869	0.789488
171.761	2.52638
174.654	1.55002
177.547	0.307487
180.439	1.05021
183.332	1.27022
186.225	1.36845
189.117	1.44185
192.01	1.83918
194.903	1.29981
197.796	0.688086
200.688	1.28171
203.581	0.990928
206.474	1.07868
209.366	0.352232
212.259	0.002608
215.152	0.890097
218.044	0.770666
220.937	1.93727
223.83	2.13591
226.722	1.53797
229.615	2.46955
232.508	1.61427
235.4	1.98353
238.293	2.06638
241.186	0.961622
244.079	1.08402
246.971	2.29454
249.864	1.53673
252.757	3.12804
255.649	1.76612
258.542	1.92372
261.435	2.01366
264.327	1.63548
267.22	1.40362
270.113	0.763353
273.006	1.83682
275.898	1.68344
278.791	1.93644
281.684	1.77271
284.576	1.09251
287.469	0.76841
290.362	0.185751
293.255	0.583735
296.147	1.61686
299.04	1.44789
301.933	0.774798
304.825	1.16881
307.718	0.465861
310.611	0.136502
313.503	0.27373
316.396	1.24355
319.289	0.344174
322.182	1.04357
325.074	2.34097
327.967	1.13967
330.86	1.62012
333.752	1.09344
336.645	0.039903
339.538	2.01073
342.43	0.231833
345.323	1.391
348.216	0.111066
351.108	1.20896
354.001	1.44264
356.894	0.388689
359.786	1.06049
362.679	1.21411
365.572	0.999104
368.465	1.11224
371.357	1.78237
374.25	1.03088
377.143	1.35121
380.035	0.77823
382.928	0.804115
385.821	1.25844
388.714	1.15041
391.606	0.32581
394.499	0.054709
397.392	1.8306
400.284	1.01472
403.177	0.307069
406.07	2.3611
408.962	1.36325
411.855	2.33587
414.748	1.20849
417.64	2.47595
420.533	0.889719
423.426	0.262828
426.319	1.74385
429.211	0.705348
432.104	0.266139
434.997	0.808918
437.889	1.40125
440.782	2.7338
443.675	0.269927
446.567	1.1002
449.46	0.924525
452.353	1.49852
455.246	1.51368
458.138	1.66155
461.031	2.25447
463.924	1.61943
466.816	1.22399
469.709	0.73559
472.602	0.979411
475.495	1.10198
478.387	0.015909
481.28	2.50629
484.173	1.28332
487.065	1.14679
489.958	0.819111
492.851	0.973782
495.743	0.065053
498.636	0.907932
501.529	1.30569
504.421	0.842116
507.314	0.115917
510.207	1.67646
513.1	2.45207
515.992	0.004746
518.885	1.3143
521.778	1.55554
524.67	1.42823
527.563	0.519936
530.456	1.41727
533.348	0.118015
536.241	0.096911
539.134	0.196365
542.027	1.8117
544.919	2.26476
547.812	1.15078
550.705	2.47006
553.597	2.59841
556.49	0.789022
559.383	1.04503
562.275	0.499404
565.168	1.5147
568.061	1.76596
570.953	0.365482
573.846	0.271315
576.739	1.15819
579.632	1.80293
582.524	1.61881
585.417	0.033928
588.31	0.066168
591.202	1.18619
594.095	1.09288
596.988	1.36576
599.88	0.995229
602.773	1.30613
605.666	1.13614
608.559	0.954184
611.451	0.711008
614.344	0.813989
617.237	1.27561
620.129	0.448513
623.022	0.256779
625.915	0.967906
628.807	2.29183
631.7	1.18104
634.593	1.49912
637.486	1.10956
640.378	1.64113
643.271	0.471191
646.164	1.82496
649.056	1.27449
651.949	1.27609
654.842	1.28137
657.734	1.1993
660.627	1.63551
663.52	1.28264
666.413	0.754027
669.305	0.772915
672.198	0.952171
675.091	1.6405
677.983	1.08843
680.876	0.46349
683.769	0.532219
686.661	2.04386
689.554	1.03672
692.447	0.410919
695.34	0.740427
698.232	0.461764
701.125	1.57083
704.018	1.76544
706.91	1.55352
709.803	0.046423
712.696	1.32776
715.588	0.30179
718.481	0.723071
721.374	1.75951
724.266	1.994
727.159	1.46703
730.052	0.729543
732.945	0.796821
735.837	0.755682
738.73	1.13835
741.623	1.02578
744.515	2.17694
747.408	1.6871
750.301	0.139221
753.193	1.82111
756.086	2.63263
758.979	0.143951
761.872	1.17097
764.764	2.06852
767.657	1.34813
770.55	0.622572
773.442	0.393202
776.335	1.32509
779.228	1.49552
782.12	0.024899
785.013	0.697712
787.906	1.38079
790.798	0.501741
793.691	0.905827
796.584	1.15636
799.477	0.457838
802.369	0.313601
805.262	2.20581
808.155	1.89494
811.047	0.866443
813.94	0.610943
816.833	0.951717
819.726	1.73873
822.618	1.0838
825.511	0.683347
828.404	1.27181
831.296	1.21613
834.189	1.59544
837.082	1.13051
839.974	1.25386
842.867	1.15163
845.76	0.598746
848.653	1.74166
851.545	1.04102
854.438	2.12562
857.331	0.606984
860.223	0.331562
863.116	2.28968
866.009	2.16941
868.901	0.859982
871.794	1.49787
874.687	0.183925
877.58	1.42284
880.472	0.946954
883.365	0.821383
886.258	0.356298
889.15	1.05423
892.043	1.28198
894.936	1.80856
897.828	0.910722
900.721	0.760865
903.614	1.12778
906.506	0.263402
909.399	0.937894
912.292	2.4869
915.185	0.626621
918.077	0.292241
920.97	2.65711
923.863	1.01469
926.755	0.256375
929.648	0.05143
932.541	0.964724
935.433	0.791381
938.326	1.99071
941.219	1.59762
944.112	0.812791
947.004	1.19516
949.897	2.59191
952.79	1.76052
955.682	1.57613
958.575	1.08749
961.468	1.19479
964.36	1.21042
967.253	2.21583
970.146	0.03258
973.038	0.853104
975.931	0.009719
978.824	1.62245
981.717	0.698208
984.609	0.651353
987.502	0.35403
990.395	0.018437
993.287	0.354242
996.18	2.36828
999.073	1.41613
1001.97	0.563298
1004.86	0.422358
1007.75	1.55546
1010.64	1.95439
1013.54	1.45954
1016.43	0.568362
1019.32	2.12416
1022.21	0.952206
1025.11	1.16536
1028	2.62961
1030.89	1.2264
1033.79	0.465279
1036.68	0.623585
1039.57	1.90556
1042.46	0.522021
1045.36	1.10926
1048.25	1.59566
1051.14	1.45036
1054.03	0.744852
1056.93	1.29779
1059.82	1.05759
1062.71	2.32238
1065.61	2.05081
1068.5	0.967877
1071.39	1.41052
1074.28	2.63922
1077.18	1.59562
1080.07	1.02
1082.96	2.31329
1085.85	0.022209
1088.75	0.923955
1091.64	0.919597
1094.53	1.42298
1097.42	0.420444
1100.32	1.43568
1103.21	1.56623
1106.1	0.226649
1108.99	0.604096
1111.89	0.262924
1114.78	0.70367
1117.67	1.62421
1120.57	3.04878
1123.46	0.252489
1126.35	2.17709
1129.24	1.06219
1132.14	0.794369
1135.03	1.2409
1137.92	0.085901
1140.82	0.077445
1143.71	1.02483
1146.6	1.84176
1149.49	1.16596
1152.39	1.88487
1155.28	1.82079
1158.17	1.95517
1161.06	1.9111
1163.96	1.93691
1166.85	1.75718
1169.74	1.03059
1172.63	1.15925
1175.53	1.75053
1178.42	2.39558
1181.31	1.43749
1184.2	1.23215
1187.1	1.86339
1189.99	1.68404
1192.88	1.14825
1195.78	0.918238
1198.67	0.68696
1201.56	0.506198
1204.45	0.801488
1207.35	2.0121
1210.24	0.073386
1213.13	1.67729
1216.03	0.809353
1218.92	1.68349
1221.81	1.52635
1224.7	0.149344
1227.6	2.18997
1230.49	1.51876
1233.38	1.28681
1236.27	0.462031
1239.17	1.59222
1242.06	2.62387
1244.95	1.29978
1247.85	1.12575
1250.74	1.46046
1253.63	2.18636
1256.52	1.2715
1259.42	0.541483
1262.31	1.33504
1265.2	0.894292
1268.09	1.74146
1270.99	1.04545
1273.88	1.15316
1276.77	0.066133
1279.66	1.13033
1282.56	1.87195
