Measurement: Raman, 785 nm, unoriented, Raman Data Processed
Mineral: Nickelphosphide
Rruff sample: R070134
Ideal chemistry: Ni_3_P
Locality: northwest Africa 1054 meteorite, Morocco
Source: Michael Scott
Description: Black sliver of a phase, associated with kamacite and diopside
Measured chemistry: lighter phase from the upper left: (Ni_1.67_Fe_1.33_)_Î£=3_P_1.00_
Raman shift (cm-1)	intensity
199.413	0
202.306	35.9902
205.198	17.0664
208.091	12.0283
210.984	50.1201
213.876	14.4219
216.769	69.5938
219.662	123.824
222.554	200.83
225.447	120.959
228.34	124.226
231.233	83.4766
234.125	117.618
237.018	220.432
239.911	244.735
242.803	170.935
245.696	161.965
248.589	175.075
251.482	161.798
254.374	173.873
257.267	253.597
260.16	171.811
263.052	114.082
265.945	194.909
268.838	113.553
271.73	146.339
274.623	174.755
277.516	110.592
280.409	101.516
283.301	141.059
286.194	178.309
289.087	137.522
291.979	140.63
294.872	0.553711
297.765	21.7568
300.657	48.7744
303.55	190.022
306.443	135.23
309.336	110.304
312.228	83.1406
315.121	76.9805
318.014	156.644
320.906	69.7607
323.799	54.498
326.692	60.332
329.584	102.105
332.477	119.407
335.37	55.1924
338.262	23.0732
341.155	85.915
344.048	70.2441
346.941	38.249
349.833	79.7266
352.726	70.2051
355.619	34.7715
358.511	35.1514
361.404	32.9453
364.297	31.9824
367.19	39.0342
370.082	9.67285
372.975	70.1406
375.868	166.911
378.76	28.7109
381.653	77.0127
384.546	34.2022
387.438	38.9815
390.331	26.334
393.224	162.018
396.116	50.9893
399.009	126.923
401.902	55.919
404.795	3.21973
407.687	14.4131
410.58	2.44922
413.473	44.6016
416.365	58.7412
419.258	69.8877
422.151	44.1435
425.043	105.772
427.936	23.0225
430.829	33.2754
433.722	99.6123
436.614	31.7734
439.507	9.69336
442.4	61.542
445.292	35.8877
448.185	60.8848
451.078	20.6084
453.971	58.2246
456.863	82.0332
459.756	53.5752
462.649	58.3408
465.541	98.4316
468.434	98.8086
471.327	147.523
474.219	136.579
477.112	92.084
480.005	48.9307
482.897	157.355
485.79	72.1162
488.683	53.4824
491.576	97.2324
494.468	14.8301
497.361	9.2373
500.254	95.5684
503.146	28.418
506.039	55.7412
508.932	93.2441
511.824	129.036
514.717	214.837
517.61	39.0049
520.503	71.6572
523.395	66.458
526.288	3.67481
529.181	104.175
532.073	100.05
534.966	140.573
537.859	162.244
540.751	103.126
543.644	109.776
546.537	88.2246
549.43	148.935
552.322	54.8848
555.215	69.2812
558.108	48.5664
561	56.2109
563.893	107.927
566.786	113.206
569.678	5.52637
572.571	136.496
575.464	145.628
578.356	91.1455
581.249	69.5107
584.142	170.876
587.035	128.446
589.927	80.7822
592.82	7.03809
595.713	44.7197
598.605	112.849
601.498	150.966
604.391	102.857
607.284	141.885
610.176	44.4824
613.069	76.4277
615.962	46.5527
618.854	101.072
621.747	75.1543
624.64	103.186
627.532	80.667
630.425	156.362
633.318	74.7773
636.211	91.7539
639.103	64.5029
641.996	69.3887
644.889	148.888
647.781	73.3125
650.674	32.6328
653.567	0.022461
656.459	94.0098
659.352	55.9717
662.245	51.7891
665.138	20.5039
668.03	83.9219
670.923	114.106
673.816	57.1152
676.708	73.4434
679.601	76.5635
682.494	22.9746
685.386	91.2383
688.279	102.266
691.172	98.6894
694.064	73.3799
696.957	67.1758
699.85	119.343
702.743	168.772
705.635	139.066
708.528	158.36
711.421	105.57
714.313	162.117
717.206	192.845
720.099	136.224
722.991	181.75
725.884	105.911
728.777	55.1338
731.67	104.457
734.562	88.1914
737.455	77.4092
740.348	62.9307
743.24	102.487
746.133	51.8867
749.026	188.037
751.918	71.2686
754.811	31.083
757.704	112.55
760.597	11.1875
763.489	79.0615
766.382	11.7031
769.275	50.5264
772.167	30.6309
775.06	61.873
777.953	27.8721
780.846	13.166
783.738	125.173
786.631	1.37012
789.524	145.332
792.416	27.9023
795.309	55.9893
798.202	10.1016
801.094	6.90332
803.987	33.0957
806.88	13.0791
809.773	53.6631
812.665	88.5967
815.558	31.9678
818.451	59.6426
821.343	167.484
824.236	98.7754
827.129	41.1572
830.021	48.1055
832.914	82.5791
835.807	100.167
838.699	78.7783
841.592	73.3125
844.485	132.16
847.378	114.255
850.27	155.174
853.163	22.2129
856.056	73.5469
858.948	80.8066
861.841	59.7207
864.734	104.381
867.626	169.769
870.519	70.1201
873.412	20.3857
876.305	46.3525
879.197	37.6973
882.09	39.1377
884.983	96.1006
887.875	139.352
890.768	58.751
893.661	107.969
896.553	22.8389
899.446	102.638
902.339	68.7773
905.232	78.374
908.124	71.7617
911.017	33.6152
913.91	88.3408
916.802	37.3857
919.695	19.8896
922.588	91.7725
925.481	37.0625
928.373	44.002
931.266	58.0684
934.159	120.736
937.051	126.151
939.944	22.7637
942.837	59.6621
945.729	95.9941
948.622	78.582
951.515	52.7803
954.407	72.8467
957.3	58.1777
960.193	114.007
963.086	51.6875
965.978	117.301
968.871	62.0801
971.764	120.784
974.656	21.6689
977.549	82.6904
980.442	82.876
983.334	112.579
986.227	215.731
989.12	30.7432
992.013	13.9834
994.905	27.2881
997.798	68.5957
1000.69	118.539
1003.58	120.987
1006.48	191.292
1009.37	97.8398
1012.26	175.306
1015.15	60.2676
1018.05	97.0332
1020.94	21.1904
1023.83	36.0898
1026.72	77.7617
1029.62	66.7217
1032.51	89.4492
1035.4	171.195
1038.3	88.5879
1041.19	90.9522
1044.08	85.9922
1046.97	19.7686
1049.87	74.8672
1052.76	26.4443
1055.65	17.8506
1058.55	105.78
1061.44	18.0078
1064.33	75.2383
1067.22	7.34863
1070.12	47.9395
1073.01	12.8809
1075.9	91.9668
1078.79	99.5478
1081.69	76.7568
1084.58	53.6211
1087.47	74.2978
1090.36	82.208
1093.26	87.5049
1096.15	82.1748
1099.04	95.832
1101.93	47.1992
1104.83	51.5195
1107.72	57.6172
1110.61	128.528
1113.51	83.3867
1116.4	146.376
1119.29	47.9355
1122.18	36.6065
1125.08	84.8389
1127.97	75.5283
1130.86	50.4785
1133.76	72.0049
1136.65	120.531
1139.54	49.3516
1142.43	141.364
1145.33	78.4902
1148.22	105.691
1151.11	7.83301
1154	113.721
1156.9	54.2705
1159.79	35.4043
1162.68	173.496
1165.57	27.6846
1168.47	76.0215
1171.36	79.1484
1174.25	107.338
1177.14	112.226
1180.04	75.7705
1182.93	40.5938
1185.82	71.166
1188.72	45.5156
1191.61	32.126
1194.5	119.457
1197.39	23.1982
1200.29	48.375
1203.18	56.168
1206.07	55.3935
1208.96	154.384
1211.86	100.355
1214.75	86.9394
1217.64	133.246
1220.54	62.0518
1223.43	110.996
1226.32	19.6094
1229.21	13.4785
1232.11	123.635
1235	104.581
1237.89	121.839
