Measurement: Raman, 532 nm, unoriented, Raman Data Processed
Mineral: Nickeline
Rruff sample: R060121
Ideal chemistry: NiAs
Locality: Yellowknife, Great Slave Lake, Canada
Source: University of Arizona Mineral Museum
Description: Bronze colored massive
Measured chemistry: Ni_1.06_As_0.94_
Raman shift (cm-1)	intensity
120.637	0
124.012	0.632123
127.387	1.18831
130.762	3.02581
134.136	2.78254
137.511	8.51318
140.886	6.11978
144.261	6.31938
147.636	6.77397
151.011	7.14953
154.385	10.807
157.76	4.90108
161.135	7.60478
164.51	5.00505
167.885	6.07862
171.259	5.9862
174.634	4.97311
178.009	4.28062
181.384	3.12074
184.759	3.21718
188.133	2.26877
191.508	1.61227
194.883	2.03013
198.258	1.75286
201.633	2.16885
205.008	1.6943
208.382	1.38426
211.757	0.959647
215.132	1.28057
218.507	0.835395
221.882	0.701204
225.256	0.513008
228.631	0.445982
232.006	0.553287
235.381	0.413788
238.756	0.069766
242.131	1.2938
245.505	0.349466
248.88	0.247788
252.255	0.748164
255.63	0.224192
259.005	0.295493
262.38	0.689693
265.754	0.137626
269.129	0.422145
272.504	0.086695
275.879	0.09663
279.254	0.167635
282.628	0.936533
286.003	0.61497
289.378	0.021078
292.753	0.189834
296.128	0.439015
299.503	0.265409
302.877	0.029403
306.252	0.703364
309.627	0.475977
313.002	1.38093
316.377	0.026016
319.752	0.433651
323.126	0.204784
326.501	0.489629
329.876	0.807368
333.251	0.242438
336.626	0.629074
340	0.473347
343.375	0.554263
346.75	0.758454
350.125	0.51072
353.5	0.206425
356.875	1.15065
360.249	0.360351
363.624	1.28009
366.999	1.6917
370.374	0.894835
373.749	0.712317
377.123	0.425354
380.498	0.920515
383.873	0.227842
387.248	0.741694
390.623	0.767348
393.998	0.79792
397.372	0.000659
400.747	0.826428
404.122	0.443052
407.497	0.097322
410.872	0.125469
414.247	0.349133
417.621	1.11025
420.996	0.740256
424.371	0.470944
427.746	0.31971
431.121	0.478369
434.495	0.426125
437.87	0.390042
441.245	0.904193
444.62	0.623763
447.995	0.546412
451.37	1.11279
454.744	0.726854
458.119	0.481059
461.494	0.197601
464.869	1.10535
468.244	0.658993
471.618	0.415189
474.993	0.279637
478.368	0.646585
481.743	0.396599
485.118	0.221577
488.493	0.436436
491.867	0.033685
495.242	0.829521
498.617	0.689316
501.992	0.512052
505.367	1.55149
508.741	0.621558
512.116	0.591074
515.491	1.00897
518.866	0.192387
522.241	0.289559
525.616	1.01208
528.99	1.30657
532.365	0.079567
535.74	0.350163
539.115	0.835348
542.49	0.899259
545.865	0.215675
549.239	0.704244
552.614	0.572775
555.989	0.913914
559.364	1.11641
562.739	1.34151
566.114	0.811835
569.488	0.921583
572.863	0.41462
576.238	0.944857
579.613	0.465855
582.987	0.807238
586.362	0.698636
589.737	0.7559
593.112	0.573831
596.487	1.39434
599.862	0.725024
603.236	1.02387
606.611	0.664971
609.986	0.508151
613.361	0.142336
616.736	0.86756
620.111	0.598548
623.485	1.3225
626.86	0.891201
630.235	0.228616
633.61	0.610815
636.985	0.155479
640.36	0.713712
643.734	0.071646
647.109	0.993451
650.484	1.36968
653.859	0.837122
657.234	0.789122
660.609	0.643677
663.983	0.558017
667.358	0.79854
670.733	0.229587
674.108	0.41857
677.482	0.33805
680.857	0.698924
684.232	0.021415
687.607	0.360012
690.982	0.241562
694.357	0.663213
697.731	0.528298
701.106	0.048727
704.481	0.191853
707.856	0.831513
711.231	0.023784
714.606	0.510453
717.98	0.030348
721.355	0.073699
724.73	0.443274
728.105	0.068949
731.48	1.08788
734.855	0.710284
738.229	0.109358
741.604	0.487449
744.979	0.35045
748.354	1.1249
751.729	0.21347
755.104	0.354099
758.478	0.326739
761.853	0.013241
765.228	0.614415
768.603	0.26866
771.977	0.355169
775.352	0.745439
778.727	0.531147
782.102	0.864062
785.477	0.746486
788.852	0.553758
792.226	0.496734
795.601	0.806364
798.976	1.30435
802.351	1.12582
805.726	1.05021
809.101	0.898337
812.475	0.949898
815.85	0.619744
819.225	0.643868
822.6	0.916531
825.975	1.34307
829.35	1.18382
832.724	1.15967
836.099	1.4503
839.474	1.07109
842.849	1.29801
846.224	1.58559
849.598	1.61938
852.973	1.30012
856.348	1.30584
859.723	1.60672
863.098	0.800702
866.473	1.4802
869.847	1.44724
873.222	1.3053
876.597	0.936889
879.972	0.285337
883.347	0.412906
886.721	0.540493
890.096	0.027218
893.471	0.61804
896.846	0.252234
900.221	1.01256
903.596	0.663659
906.97	0.107265
910.345	0.232318
913.72	0.459363
917.095	0.804943
920.47	0.225054
923.845	0.185922
927.219	0.458856
930.594	0.908244
933.969	0.416421
937.344	0.480204
940.719	0.869414
944.093	0.224527
947.468	0.606219
950.843	0.001065
954.218	0.621415
957.593	0.593158
960.968	0.60747
964.342	0.680846
967.717	0.547178
971.092	0.683553
974.467	0.851927
977.842	0.62042
981.216	0.188529
984.591	0.422716
987.966	0.249123
991.341	0.297218
994.716	0.819031
998.091	0.692184
1001.47	0.604735
1004.84	0.814582
1008.22	0.970761
1011.59	0.014452
1014.97	0.876252
1018.34	0.456355
1021.71	0.962556
1025.09	1.02017
1028.46	0.442987
1031.84	0.75048
1035.21	0.933741
1038.59	1.02591
1041.96	1.06946
1045.34	1.06638
1048.71	0.372097
1052.09	0.248351
1055.46	0.701808
1058.84	0.921185
1062.21	0.726347
1065.59	0.201729
1068.96	0.562808
1072.34	0.427039
1075.71	1.01031
1079.09	0.03393
1082.46	0.511993
1085.84	0.085966
1089.21	0.374072
1092.59	0.076696
1095.96	0.079148
1099.34	0.450597
1102.71	0.553144
1106.09	0.225805
1109.46	0.485192
1112.83	0.392849
1116.21	0.438305
1119.58	1.10718
1122.96	0.434633
1126.33	0.042091
1129.71	0.074875
1133.08	0.344278
1136.46	0.571642
1139.83	0.893026
1143.21	0.244604
1146.58	0.256162
1149.96	0.555975
1153.33	0.270926
1156.71	0.39825
1160.08	0.568888
1163.46	0.665271
1166.83	0.693328
1170.21	0.467997
1173.58	1.37229
1176.96	0.586421
1180.33	0.525657
1183.71	0.313399
1187.08	0.711987
1190.45	0.285801
1193.83	0.260938
1197.2	0.476663
1200.58	0.20638
1203.95	1.12811
1207.33	1.14125
1210.7	0.395925
1214.08	1.14513
1217.45	0.895108
1220.83	0.908333
1224.2	1.05062
1227.58	0.106182
1230.95	1.07668
1234.33	0.944633
1237.7	0.515259
1241.08	0.428674
1244.45	0.840635
1247.83	0.055268
1251.2	0.926943
1254.58	0.828927
1257.95	0.381081
1261.33	0.64206
1264.7	0.230067
1268.08	0.79885
1271.45	0.51881
1274.83	0.747863
1278.2	0.881487
1281.58	0.686071
1284.95	0.577214
1288.33	0.361548
1291.7	0.351564
1295.08	1.02463
1298.45	0.490697
1301.82	0.211789
