Measurement: Raman, 532 nm, unoriented, Raman Data Processed
Mineral: Nickelphosphide
Rruff sample: R070134
Ideal chemistry: Ni_3_P
Locality: northwest Africa 1054 meteorite, Morocco
Source: Michael Scott
Description: Black sliver of a phase, associated with kamacite and diopside
Measured chemistry: lighter phase from the upper left: (Ni_1.67_Fe_1.33_)_Î£=3_P_1.00_
Raman shift (cm-1)	intensity
168.984	0
171.877	57.0938
174.77	11.0137
177.662	84.7734
180.555	130.438
183.448	212.103
186.34	377.557
189.233	393.568
192.126	405.459
195.018	469.133
197.911	363.805
200.804	485.656
203.697	489.053
206.589	514.131
209.482	578.982
212.375	448.678
215.268	526.746
218.16	460.359
221.053	422.082
223.946	474.152
226.838	393.684
229.731	484.731
232.624	448.637
235.516	431.887
238.409	371.812
241.302	422.99
244.195	365.162
247.087	375.316
249.98	367.404
252.873	362.809
255.765	254.06
258.658	359.258
261.551	330.508
264.443	317.24
267.336	329.658
270.229	257.492
273.122	154.518
276.014	231.09
278.907	186.897
281.8	170.863
284.692	210.137
287.585	215.629
290.478	251.967
293.37	182.053
296.263	148.617
299.156	135.621
302.048	25.2461
304.941	27.8047
307.834	161.945
310.727	103.943
313.619	218.781
316.512	97.1074
319.405	31.1699
322.297	63.8262
325.19	5.90234
328.083	253.861
330.976	15.7344
333.868	221.613
336.761	71.1504
339.654	68.3281
342.546	86.375
345.439	8.40625
348.332	69.8711
351.224	14.4707
354.117	78.3945
357.01	64.0977
359.902	161.856
362.795	22.8008
365.688	53.9414
368.581	47.8164
371.473	21.1914
374.366	148.715
377.259	208.519
380.151	31.5117
383.044	61.1719
385.937	152.664
388.83	111.137
391.722	86.9297
394.615	29.6172
397.508	40.6055
400.4	185.84
403.293	101.207
406.186	214.106
409.079	181.086
411.971	0.828125
414.864	184.148
417.757	78.0352
420.649	249.977
423.542	169.887
426.435	92.3047
429.327	124.941
432.22	91.25
435.113	177.422
438.005	114.762
440.898	34.1328
443.791	184.469
446.684	251.828
449.576	217.254
452.469	102.473
455.362	276.309
458.254	240.777
461.147	141.254
464.04	63.0391
466.933	114.602
469.825	192.543
472.718	266.512
475.611	231.375
478.503	125.352
481.396	127.988
484.289	7.09766
487.181	213.398
490.074	89.5898
492.967	232.383
495.86	339.379
498.752	105.629
501.645	67.043
504.538	275.941
507.43	105.453
510.323	144.996
513.216	138.301
516.108	28.1445
519.001	42.8906
521.894	103.598
524.787	49.6289
527.679	136.969
530.572	73.8633
533.465	167.816
536.357	3.52344
539.25	234.836
542.143	46.0859
545.035	41.3477
547.928	133.769
550.821	94.8086
553.714	45.9336
556.606	100.289
559.499	132.785
562.392	100.805
565.284	104.457
568.177	133.887
571.07	80.2656
573.962	7.91406
576.855	35.4961
579.748	37.0586
582.641	85.4531
585.533	34.1992
588.426	106.344
591.319	47.543
594.211	22.2656
597.104	148.269
599.997	144.523
602.889	133.039
605.782	95.5039
608.675	82.3242
611.568	133.719
614.46	145.519
617.353	22.6133
620.246	122.621
623.138	73.7578
626.031	124.641
628.924	216.164
631.817	57.3867
634.709	252.715
637.602	122.305
640.495	183.32
643.387	150.891
646.28	313.387
649.173	217.191
652.065	236.902
654.958	225
657.851	293.156
660.744	369.617
663.636	267.297
666.529	267.723
669.422	321.449
672.314	179.141
675.207	157.414
678.1	179.812
680.992	162.879
683.885	105.75
686.778	202.629
689.67	67.2031
692.563	46.4102
695.456	207.344
698.349	6.22266
701.241	73.8516
704.134	109.106
707.027	90.5898
709.919	8.13672
712.812	263.301
715.705	60.9805
718.597	152.215
721.49	66.2109
724.383	213.207
727.276	60.1523
730.168	29.8477
733.061	138.375
735.954	163.594
738.846	40.1914
741.739	235.961
744.632	110.602
747.524	28.3047
750.417	92.6445
753.31	197.965
756.203	90.4453
759.095	47.1445
761.988	134.125
764.881	0.949219
767.773	13.2422
770.666	101.512
773.559	64.6562
776.452	168.297
779.344	77.707
782.237	97.9297
785.13	100.277
788.022	237.848
790.915	214.106
793.808	90.4297
796.701	129.301
799.593	352.481
802.486	134.731
805.379	182.824
808.271	117.148
811.164	192.938
814.057	95.8672
816.949	163.367
819.842	173.793
822.735	231.422
825.628	58.9453
828.52	86.8594
831.413	34.3281
834.306	206.215
837.198	174.371
840.091	151.75
842.984	202.129
845.876	346.559
848.769	151.441
851.662	144.602
854.554	200.344
857.447	54.6719
860.34	58.9844
863.233	110.309
866.125	158.129
869.018	193.809
871.911	156.363
874.803	116.246
877.696	173.691
880.589	180.856
883.481	175.781
886.374	177.223
889.267	12.5469
892.16	178.789
895.052	80.8555
897.945	14.9297
900.838	13.7734
903.73	55.3047
906.623	152.363
909.516	122.125
912.409	224.031
915.301	149.168
918.194	399.82
921.087	112.527
923.979	71.9141
926.872	153.801
929.765	154.625
932.658	42.0898
935.55	42.9688
938.443	19.4141
941.336	102.699
944.228	17.8398
947.121	213.203
950.014	77.8906
952.906	161.941
955.799	49.75
958.692	133.117
961.585	4.6875
964.477	77.1328
967.37	69.7812
970.263	199.766
973.155	209.742
976.048	88.6641
978.941	278.125
981.833	247.695
984.726	356.652
987.619	168.191
990.511	224.242
993.404	291.457
996.297	304.477
999.19	305.59
1002.08	145.191
1004.98	288.148
1007.87	23.2344
1010.76	120.043
1013.65	242.758
1016.55	221.664
1019.44	195.785
1022.33	244.918
1025.22	200.852
1028.12	40.1875
1031.01	81.9297
1033.9	128.172
1036.8	176.332
1039.69	123.691
1042.58	203.051
1045.47	59.4531
1048.37	135.902
1051.26	150.902
1054.15	186.926
1057.04	221.496
1059.94	27.9688
1062.83	257.445
1065.72	57.8125
1068.61	196.766
1071.51	48.1094
1074.4	188.383
1077.29	146.281
1080.18	0.484375
1083.08	211.148
1085.97	114.5
1088.86	376
1091.76	66.2891
1094.65	7.21094
1097.54	36.5391
1100.43	46.2109
1103.33	219.203
1106.22	404.305
1109.11	123.75
1112.01	324.922
1114.9	121.219
1117.79	58.1719
1120.68	132.852
1123.58	191.086
1126.47	254.547
1129.36	127.156
1132.25	43.9922
1135.15	197.977
1138.04	165.523
1140.93	66.2734
1143.83	291.586
1146.72	207.438
1149.61	165.031
1152.5	375.867
1155.4	124.648
1158.29	13.7812
1161.18	252.102
1164.07	241.156
1166.97	161.023
1169.86	309.672
1172.75	268.148
1175.64	84.5547
1178.54	239.969
1181.43	328.938
1184.32	216.961
1187.21	350.07
1190.11	232.922
1193	214.047
1195.89	149.406
1198.79	97.4141
1201.68	318.219
1204.57	78.1094
1207.46	326.703
1210.36	254.508
1213.25	302.203
1216.14	187.25
1219.04	94.5469
1221.93	280.039
1224.82	17.6797
1227.71	276.75
1230.61	4.49219
1233.5	216.523
1236.39	166.641
1239.28	361.891
1242.18	44.8047
1245.07	146.188
1247.96	71.625
1250.86	48.9219
1253.75	215.078
1256.64	204.484
1259.53	206.984
1262.42	213.219
1265.32	79.4844
1268.21	91
1271.1	222.469
1274	287.367
1276.89	88.9531
1279.78	116.727
1282.67	184.344
1285.57	173.312
1288.46	63.0469
1291.35	32.3438
1294.24	89.9844
1297.14	0
