Measurement: Raman, 532 nm, unoriented, Raman Data Processed
Mineral: Nickeline
Rruff sample: R060906
Ideal chemistry: NiAs
Locality: Moose Horn mine, Timiskaming district, Ontario, Canada
Source: Royal Ontario Museum
Description: Massive metallic lustered tarnished to dull copper color
Measured chemistry: Ni_1.00_(As_0.98_Sb_0.02_)_Î£=1_ ; trace amounts of Co and Fe
Raman shift (cm-1)	intensity
152.379	0
155.271	62.8011
158.164	6.75915
161.057	45.2213
163.949	74.2922
166.842	49.4219
169.735	41.9207
172.627	67.0757
175.52	1.31177
178.413	38.7562
181.305	45.697
184.198	51.2256
187.091	69.0403
189.983	49.0896
192.876	57.2559
195.769	36.9574
198.662	16.6305
201.554	30.1705
204.447	70.4363
207.34	79.6746
210.232	65.5102
213.125	53.2013
216.018	41.817
218.911	22.2719
221.803	36.2716
224.696	32.4369
227.589	2.55579
230.481	37.2465
233.374	52.0643
236.267	33.0105
239.159	59.5494
242.052	39.2517
244.945	73.955
247.838	19.8878
250.73	41.0886
253.623	59.9543
256.516	44.1754
259.408	0.426025
262.301	48.1332
265.194	6.05066
268.086	11.2223
270.979	43.353
273.872	20.5519
276.764	44.4183
279.657	57.1763
282.55	64.9308
285.442	5.18921
288.335	14.6793
291.228	36.9564
294.121	27.7526
297.013	15.0636
299.906	25.0594
302.799	57.7554
305.691	26.5823
308.584	33.2775
311.477	105.781
314.37	57.7972
317.262	42.1063
320.155	5.37183
323.048	48.04
325.94	55.5278
328.833	38.8441
331.726	65.5972
334.618	51.325
337.511	54.243
340.404	67.3226
343.296	93.7399
346.189	89.309
349.082	48.6957
351.975	52.8232
354.867	73.3435
357.76	35.4944
360.653	82.3595
363.545	41.5659
366.438	45.1877
369.331	10.3153
372.224	30.9407
375.116	46.0277
378.009	5.12756
380.902	37.6578
383.794	59.5425
386.687	27.5284
389.58	73.6013
392.472	64.7229
395.365	31.6583
398.258	24.1421
401.151	31.2859
404.043	43.9896
406.936	40.4066
409.829	17.2097
412.721	5.64209
415.614	30.0204
418.507	64.8518
421.399	11.1668
424.292	30.9493
427.185	27.3154
430.077	47.7165
432.97	30.647
435.863	27.731
438.755	39.9126
441.648	43.9918
444.541	40.6337
447.434	26.8225
450.326	31.4799
453.219	0.994019
456.112	31.8356
459.004	40.5092
461.897	35.6881
464.79	43.5098
467.683	20.4992
470.575	57.6217
473.468	8.69251
476.361	65.192
479.253	22.0947
482.146	10.0986
485.039	47.9386
487.931	63.9014
490.824	34.8348
493.717	23.6851
496.61	6.91858
499.502	64.9281
502.395	48.6759
505.288	10.8607
508.18	22.5421
511.073	12.0249
513.966	9.04334
516.858	64.7323
519.751	11.3068
522.644	37.2293
525.536	22.4957
528.429	40.9551
531.322	22.8822
534.215	5.83716
537.107	31.5925
540	10.7467
542.893	8.48779
545.785	59.3959
548.678	50.0907
551.571	35.0785
554.463	93.6975
557.356	24.895
560.249	25.8815
563.141	32.4091
566.034	49.6529
568.927	18.3292
571.82	56.0483
574.712	29.6058
577.605	30.1262
580.498	17.5005
583.39	13.2961
586.283	34.3452
589.176	28.5905
592.068	0.897095
594.961	30.5093
597.854	38.2223
600.747	15.8105
603.639	49.1472
606.532	41.2067
609.425	52.0657
612.317	27.4834
615.21	38.4033
618.103	3.22607
620.995	49.0615
623.888	58.5262
626.781	45.0604
629.673	48.3833
632.566	46.4027
635.459	59.6703
638.352	28.2931
641.244	42.5162
644.137	13.1822
647.03	31.2939
649.922	51.2158
652.815	24.1488
655.708	28.3102
658.601	12.0866
661.493	49.6508
664.386	4.10925
667.279	27.7141
670.171	32.5706
673.064	76.0267
675.957	51.2101
678.849	20.6536
681.742	62.7212
684.635	29.8156
687.528	24.994
690.42	37.2345
693.313	23.5723
696.206	9.37854
699.098	55.6572
701.991	64.1638
704.884	25.4748
707.776	37.0778
710.669	4.53662
713.562	2.29651
716.455	13.5991
719.347	35.1674
722.24	19.6869
725.133	35.8834
728.025	25.3945
730.918	30.4453
733.811	6.71545
736.703	21.955
739.596	25.8855
742.489	6.20911
745.381	57.3038
748.274	14.6498
751.167	22.571
754.059	33.5706
756.952	37.5913
759.845	52.7625
762.738	67.1742
765.63	26.7699
768.523	21.547
771.416	32.0371
774.308	20.458
777.201	26.4198
780.094	10.4521
782.986	27.5631
785.879	17.9644
788.772	48.306
791.665	57.884
794.557	71.7944
797.45	63.8846
800.343	51.5353
803.235	48.931
806.128	29.5686
809.021	0.461304
811.913	26.0032
814.806	37.2452
817.699	18.4283
820.592	58.5571
823.484	22.3566
826.377	56.6449
829.27	80.0073
832.162	41.5023
835.055	44.0061
837.948	57.9626
840.841	30.0748
843.733	71.6803
846.626	6.56165
849.519	75.9092
852.411	31.6454
855.304	42.9451
858.197	13.86
861.089	24.1981
863.982	34.9318
866.875	34.6807
869.767	23.7847
872.66	1.33838
875.553	6.75732
878.446	37.7098
881.338	31.0582
884.231	38.6956
887.124	61.2657
890.016	65.1232
892.909	90.5477
895.802	61.6497
898.694	44.3561
901.587	14.6682
904.48	18.5332
907.372	17.9495
910.265	26.2716
913.158	23.9718
916.051	36.6973
918.943	49.5172
921.836	14.1149
924.729	28.9408
927.621	76.4998
930.514	16.5905
933.407	27.3317
936.299	17.8494
939.192	2.18665
942.085	46.2189
944.977	0.456177
947.87	18.1796
950.763	24.3401
953.656	32.7413
956.548	44.3196
959.441	49.48
962.334	61.0418
965.226	43.9087
968.119	2.88135
971.012	42.6528
973.904	24.2656
976.797	35.6655
979.69	15.4072
982.583	33.7534
985.475	62.8357
988.368	40.5085
991.261	14.2239
994.153	23.2449
997.046	24.7781
999.939	0.028076
1002.83	23.5186
1005.72	26.0295
1008.62	65.0178
1011.51	36.0881
1014.4	20.6414
1017.29	8.10498
1020.19	4.5564
1023.08	57.6631
1025.97	56.9753
1028.87	41.5869
1031.76	112.307
1034.65	37.7544
1037.54	70.1741
1040.44	49.094
1043.33	42.5166
1046.22	39.6826
1049.12	48.6763
1052.01	17.823
1054.9	65.7212
1057.79	28.5847
1060.68	39.5015
1063.58	28.606
1066.47	38.6355
1069.36	15.4587
1072.26	56.3054
1075.15	19.4866
1078.04	63.7241
1080.93	21.5525
1083.83	70.804
1086.72	90.4648
1089.61	44.0095
1092.51	13.8479
1095.4	81.3679
1098.29	42.9651
1101.18	88.0679
1104.08	72.2874
1106.97	75.1941
1109.86	23.4102
1112.75	14.3884
1115.65	36.8674
1118.54	39.4829
1121.43	56.8655
1124.33	57.4949
1127.22	41.2849
1130.11	12.7817
1133	0.217285
1135.9	57.3904
1138.79	17.748
1141.68	6.02734
1144.57	36.9551
1147.47	0.160645
1150.36	14.7947
1153.25	89.4324
1156.14	65.9595
1159.04	53.2847
1161.93	8.21484
1164.82	8.54492
1167.71	52.6809
1170.61	23.0195
1173.5	33.5908
1176.39	34.8384
1179.29	44.8052
1182.18	40.3108
1185.07	8.28003
1187.96	43.5654
1190.86	38.1274
1193.75	44.053
1196.64	4.7356
1199.54	37.5222
1202.43	63.9565
1205.32	34.1292
1208.21	64.9033
1211.11	32.292
1214	30.5117
1216.89	34.2627
1219.78	32.4119
1222.68	35.8347
1225.57	20.1919
1228.46	39.4578
1231.36	44.8535
1234.25	37.6089
1237.14	72.2444
1240.03	51.5095
1242.92	43.6975
1245.82	17.282
1248.71	17.4617
1251.6	29.2864
1254.5	26.9966
1257.39	34.4971
1260.28	34.1045
1263.17	27.6924
1266.07	28.4521
