Measurement: Raman, 532 nm, unoriented, Raman Data Processed
Mineral: Nioboaeschynite-(Y)
Rruff sample: R110140
Ideal chemistry: (Y^3+^,Ca,Th^4+^,Fe^3+^)(Nb^5+^,Ti^4+^,Ta^5+^)_2_(O,OH)_6_
Locality: Quadeville, Lyndoch Township, Renfrew County, Ontario, Canada
Source: Donald M Doell
Description: Dark reddish-brown fragment - metamict
Raman shift (cm-1)	intensity
177.755	1805.5
180.648	1827.73
183.541	1829.31
186.433	1824.49
189.326	1817.88
192.219	1817.11
195.112	1822.09
198.004	1831.47
200.897	1828.8
203.79	1813.77
206.682	1802.93
209.575	1792.89
212.468	1792.56
215.36	1783.25
218.253	1778.88
221.146	1773.33
224.038	1770.39
226.931	1757.56
229.824	1751.85
232.717	1741.89
235.609	1737.86
238.502	1730.4
241.395	1714.57
244.287	1709.05
247.18	1696.08
250.073	1692.56
252.965	1686.88
255.858	1680.66
258.751	1674.51
261.644	1660.68
264.536	1646.58
267.429	1640.45
270.322	1633.65
273.214	1628.49
276.107	1627.44
279	1615.99
281.892	1599.01
284.785	1581.46
287.678	1569.36
290.571	1561.44
293.463	1559.48
296.356	1546.65
299.249	1537.68
302.141	1530.54
305.034	1523.05
307.927	1515.12
310.82	1508.11
313.712	1497.95
316.605	1486.64
319.498	1487.76
322.39	1470.49
325.283	1459.21
328.176	1452.12
331.068	1441.42
333.961	1439.39
336.854	1437.47
339.747	1428.75
342.639	1417.63
345.532	1403.46
348.425	1398.64
351.317	1398.22
354.21	1391.12
357.103	1392.72
359.995	1377.81
362.888	1370.94
365.781	1363.33
368.673	1360.98
371.566	1352.26
374.459	1347.38
377.352	1338.97
380.244	1332.05
383.137	1324.6
386.03	1320.09
388.922	1315.78
391.815	1305.07
394.708	1296.51
397.601	1295.82
400.493	1288.12
403.386	1283.52
406.279	1275.85
409.171	1272.04
412.064	1266.36
414.957	1264.81
417.849	1251.54
420.742	1247.17
423.635	1242.35
426.527	1240.47
429.42	1238.01
432.313	1232.42
435.206	1223.54
438.098	1218.55
440.991	1213.98
443.884	1214.05
446.776	1211.72
449.669	1205.98
452.562	1198.89
455.454	1196.64
458.347	1194.89
461.24	1196.78
464.133	1188.94
467.025	1181.52
469.918	1176.15
472.811	1175.13
475.703	1172.39
478.596	1171.37
481.489	1167.25
484.382	1163.77
487.274	1163.66
490.167	1159.37
493.06	1155.1
495.952	1158.46
498.845	1156.04
501.738	1151.72
504.63	1145.34
507.523	1146.65
510.416	1147.06
513.308	1146.06
516.201	1145.68
519.094	1142.46
521.987	1139.78
524.879	1141.43
527.772	1146.07
530.665	1145.22
533.557	1142.47
536.45	1144.6
539.343	1144.33
542.236	1148.7
545.128	1150.8
548.021	1154.95
550.914	1153.88
553.806	1161.08
556.699	1162
559.592	1163
562.484	1166.71
565.377	1168.61
568.27	1172.73
571.163	1175.54
574.055	1176.45
576.948	1180.93
579.841	1190.52
582.733	1194.07
585.626	1196.6
588.519	1199.96
591.411	1200.26
594.304	1206.18
597.197	1207.19
600.09	1209.5
602.982	1206.85
605.875	1215.95
608.768	1210.33
611.66	1211.69
614.553	1215.42
617.446	1211.34
620.338	1213.26
623.231	1208.18
626.124	1203.49
629.016	1201.8
631.909	1202.8
634.802	1206.82
637.695	1204.04
640.587	1196.63
643.48	1195.39
646.373	1191.59
649.265	1188.38
652.158	1189.51
655.051	1189.95
657.943	1188.48
660.836	1183.17
663.729	1179.33
666.622	1176.43
669.514	1174.83
672.407	1169.41
675.3	1170.65
678.192	1164.59
681.085	1164.99
683.978	1164.69
686.87	1160.88
689.763	1164.27
692.656	1160.31
695.549	1161.43
698.441	1159.87
701.334	1159.37
704.227	1158.36
707.119	1161.52
710.012	1166.84
712.905	1165.42
715.798	1167.44
718.69	1167.97
721.583	1173.83
724.476	1183.88
727.368	1195.61
730.261	1200.1
733.154	1205.57
736.046	1213.99
738.939	1221.87
741.832	1227.88
744.725	1235.21
747.617	1246.89
750.51	1258.84
753.403	1272.88
756.295	1283.42
759.188	1288.55
762.081	1302.91
764.973	1311.58
767.866	1317.61
770.759	1329.44
773.652	1339.4
776.544	1337.87
779.437	1352.62
782.33	1357.93
785.222	1359.09
788.115	1361.09
791.008	1371.04
793.9	1372.41
796.793	1368.14
799.686	1361.41
802.578	1359.64
805.471	1359.62
808.364	1355.49
811.257	1350.53
814.149	1341.51
817.042	1332.75
819.935	1320.61
822.827	1313.29
825.72	1293.51
828.613	1278.44
831.505	1265.05
834.398	1246.14
837.291	1229.71
840.184	1216.3
843.076	1196.3
845.969	1173.87
848.862	1154.52
851.754	1131.92
854.647	1114.26
857.54	1094.43
860.433	1071.49
863.325	1050.02
866.218	1023.83
869.111	1000.56
872.003	978.792
874.896	951.323
877.789	928.644
880.681	902.417
883.574	878.02
886.467	853.128
889.36	831.886
892.252	801.927
895.145	777.924
898.038	753.41
900.93	726.708
903.823	703.943
906.716	678.607
909.608	658.278
912.501	631.737
915.394	610.672
918.287	588.995
921.179	564.018
924.072	541.709
926.965	523.093
929.857	503.893
932.75	482.259
935.643	462.246
938.535	443.894
941.428	425.267
944.321	411.039
947.213	399.07
950.106	386.479
952.999	373.405
955.892	360.817
958.784	350.523
961.677	337.846
964.57	328.584
967.462	322.376
970.355	312.014
973.248	303.596
976.14	295.395
979.033	290.097
981.926	283.933
984.819	276.524
987.711	270.936
990.604	267.369
993.497	262.009
996.389	257.132
999.282	253.424
1002.17	248.011
1005.07	245.178
1007.96	242.919
1010.85	237.423
1013.75	235.144
1016.64	231.278
1019.53	228.917
1022.42	225.813
1025.32	222.006
1028.21	218.872
1031.1	216.393
1033.99	214.922
1036.89	213.286
1039.78	208.474
1042.67	208.275
1045.57	205.912
1048.46	204.209
1051.35	201.559
1054.24	201.61
1057.14	199.475
1060.03	198.104
1062.92	195.119
1065.81	193.449
1068.71	192.153
1071.6	190.647
1074.49	188.796
1077.38	187.532
1080.28	188.321
1083.17	191.068
1086.06	185.431
1088.96	183.597
1091.85	182.981
1094.74	180.966
1097.63	180.185
1100.53	178.563
1103.42	176.487
1106.31	176.476
1109.2	175.44
1112.1	172.793
1114.99	173.848
1117.88	172.573
1120.78	171.392
1123.67	170.541
1126.56	168.809
1129.45	168.497
1132.35	167.716
1135.24	167.26
1138.13	166.587
1141.02	165.99
1143.92	165.02
1146.81	164.272
1149.7	163.711
1152.6	162.745
1155.49	162.403
1158.38	160.137
1161.27	160.499
1164.17	160.074
1167.06	159.604
1169.95	158.973
1172.84	158.175
1175.74	157.987
1178.63	156.738
1181.52	156.68
1184.41	155.452
1187.31	155.654
1190.2	155.446
1193.09	155.239
1195.99	154.691
1198.88	153.913
1201.77	154.263
1204.66	154.717
1207.56	153.839
1210.45	154.196
1213.34	154.103
1216.23	151.613
1219.13	149.886
1222.02	150.588
1224.91	150.063
1227.81	150.699
1230.7	149.592
1233.59	149.988
1236.48	149.405
1239.38	149.53
1242.27	149.276
1245.16	149.06
1248.05	149.02
1250.95	148.85
1253.84	148.203
1256.73	148.383
1259.62	147.831
1262.52	148.631
1265.41	148.363
1268.3	148.456
1271.2	147.739
1274.09	148.431
1276.98	148.474
1279.87	147.792
1282.77	147.583
1285.66	147.925
1288.55	148.722
1291.44	147.954
1294.34	147.416
1297.23	148.668
1300.12	146.955
1303.02	147.197
