Measurement: Raman, 780 nm, unoriented, Raman Data Processed
Mineral: Nioboaeschynite-(Y)
Rruff sample: R110140
Ideal chemistry: (Y^3+^,Ca,Th^4+^,Fe^3+^)(Nb^5+^,Ti^4+^,Ta^5+^)_2_(O,OH)_6_
Locality: Quadeville, Lyndoch Township, Renfrew County, Ontario, Canada
Source: Donald M Doell
Description: Dark reddish-brown fragment - metamict
Raman shift (cm-1)	intensity
178.385	1900.53
181.277	1904.16
184.17	1907.73
187.063	1904.01
189.955	1910.08
192.848	1915.97
195.741	1914.28
198.633	1918.14
201.526	1910.61
204.419	1912.16
207.311	1918.18
210.204	1912.41
213.097	1908.97
215.99	1906.86
218.882	1906.87
221.775	1903.51
224.668	1899.7
227.56	1899.29
230.453	1890.86
233.346	1886.88
236.238	1878.01
239.131	1876.91
242.024	1862.75
244.917	1852.59
247.809	1847.75
250.702	1841.32
253.595	1828.06
256.487	1821.81
259.38	1819.11
262.273	1808.42
265.166	1797.42
268.058	1785.17
270.951	1780.88
273.844	1773.33
276.736	1761.47
279.629	1750.39
282.522	1742.58
285.414	1734.76
288.307	1721.4
291.2	1718.89
294.092	1707.81
296.985	1695.61
299.878	1688.23
302.771	1675.25
305.663	1671.41
308.556	1669.69
311.449	1658.33
314.341	1649.79
317.234	1646.22
320.127	1635.71
323.019	1630.88
325.912	1626.2
328.805	1618.68
331.698	1612.33
334.59	1609.34
337.483	1612.06
340.376	1601.66
343.269	1595.45
346.161	1592.98
349.054	1593.57
351.947	1583.85
354.839	1587.58
357.732	1582.28
360.625	1579.81
363.517	1576.29
366.41	1570.44
369.303	1575.3
372.195	1573.94
375.088	1561.68
377.981	1558.97
380.874	1556.94
383.766	1554.46
386.659	1549.62
389.552	1549.99
392.444	1540.51
395.337	1532.06
398.23	1530.39
401.123	1525.54
404.015	1515.47
406.908	1515.8
409.801	1501.18
412.693	1492.93
415.586	1494.08
418.479	1481.8
421.371	1478.26
424.264	1465.43
427.157	1459.19
430.05	1442.23
432.942	1440.62
435.835	1424.16
438.728	1419.66
441.62	1401.54
444.513	1396.88
447.406	1385.53
450.298	1372.43
453.191	1359.95
456.084	1352.84
458.976	1344.85
461.869	1331.31
464.762	1321.16
467.655	1306.18
470.547	1298.54
473.44	1285.9
476.333	1271.77
479.225	1262.46
482.118	1251.19
485.011	1239.8
487.904	1225.37
490.796	1216.57
493.689	1207.74
496.582	1196.95
499.474	1187.41
502.367	1178.29
505.26	1169.01
508.152	1161.22
511.045	1151.81
513.938	1140.87
516.83	1137.5
519.723	1124.34
522.616	1114.82
525.509	1103.83
528.401	1101.65
531.294	1090.79
534.187	1087.71
537.079	1079.72
539.972	1071.76
542.865	1064.68
545.757	1061.08
548.65	1058.76
551.543	1050.33
554.436	1048.94
557.328	1052.55
560.221	1042.27
563.114	1038.35
566.006	1033.31
568.899	1035.66
571.792	1030.96
574.684	1031.05
577.577	1028.34
580.47	1029.09
583.362	1022.53
586.255	1023.57
589.148	1020.23
592.041	1015.35
594.933	1018.49
597.826	1015.34
600.719	1009.54
603.611	1007.03
606.504	1005.7
609.397	999.1
612.29	996.871
615.182	993.787
618.075	990.995
620.968	985.487
623.86	981.014
626.753	978.525
629.646	972.37
632.538	972.006
635.431	965.076
638.324	958.336
641.217	951.437
644.109	943.493
647.002	940.744
649.895	935.364
652.787	930.657
655.68	919.122
658.573	911.204
661.466	902.915
664.358	901.016
667.251	892.917
670.144	888.008
673.036	882.016
675.929	873.694
678.822	868.323
681.714	862.503
684.607	855.774
687.5	852.427
690.393	848.269
693.285	843.717
696.178	837.341
699.071	832.584
701.963	828.523
704.856	827.21
707.749	826.852
710.641	823.599
713.534	821.918
716.427	820.784
719.319	819.513
722.212	818.429
725.105	819.337
727.998	820.923
730.89	820.851
733.783	825.561
736.676	830.599
739.568	832.377
742.461	837.457
745.354	838.513
748.246	845.567
751.139	851.366
754.032	853.015
756.925	860.607
759.817	864.358
762.71	871.634
765.603	877.056
768.495	889.467
771.388	890.451
774.281	896.295
777.173	903.127
780.066	914.84
782.959	918.404
785.852	921.327
788.744	926.606
791.637	936.306
794.53	942.278
797.422	936.44
800.315	937.221
803.208	932.799
806.101	938.39
808.993	934.643
811.886	933.606
814.779	925.073
817.671	925.43
820.564	921.647
823.457	911.109
826.349	897.892
829.242	888.196
832.135	880.275
835.028	867.466
837.92	855.776
840.813	843.754
843.706	830.885
846.598	816.524
849.491	802.074
852.384	792.517
855.276	774.031
858.169	761.469
861.062	746.133
863.955	729.561
866.847	713.846
869.74	694.956
872.633	677.171
875.525	660.16
878.418	638.939
881.311	619.245
884.203	601.454
887.096	586.354
889.989	561.64
892.881	542.283
895.774	522.193
898.667	501.032
901.56	483.328
904.452	465.187
907.345	448.338
910.238	429.44
913.13	409.32
916.023	390.136
918.916	373.17
921.808	355.466
924.701	338.31
927.594	322.378
930.487	307.499
933.379	295.247
936.272	278.599
939.165	265.276
942.057	254.088
944.95	238.022
947.843	228.958
950.736	221.647
953.628	212.126
956.521	203.239
959.414	195.045
962.306	187.396
965.199	180.723
968.092	175.026
970.984	170.606
973.877	167.429
976.77	161.676
979.663	156.699
982.555	154.91
985.448	150.817
988.341	147.022
991.233	145.552
994.126	143.866
997.019	141.456
999.911	140.573
1002.8	137.907
1005.7	137.024
1008.59	136.306
1011.48	134.624
1014.38	131.854
1017.27	132.162
1020.16	130.624
1023.05	131.892
1025.95	131.654
1028.84	129.997
1031.73	130.43
1034.62	129.994
1037.52	131.033
1040.41	130.906
1043.3	131.306
1046.19	129.913
1049.09	131.155
1051.98	131.441
1054.87	134.78
1057.77	134.614
1060.66	135.173
1063.55	136.758
1066.44	139.486
1069.34	141.15
1072.23	142.992
1075.12	145.559
1078.01	147.937
1080.91	148.584
1083.8	153.232
1086.69	155.778
1089.59	157.217
1092.48	160.253
1095.37	166.388
1098.26	167.395
1101.16	169.553
1104.05	176.181
1106.94	179.396
1109.83	185.583
1112.73	189.059
1115.62	194.025
1118.51	202.241
1121.4	209.373
1124.3	214.378
1127.19	223.788
1130.08	231.323
1132.98	239.938
1135.87	250.335
1138.76	258.659
1141.65	270.767
1144.55	281.862
1147.44	295.004
1150.33	307.552
1153.22	324.222
1156.12	338.047
1159.01	352.316
1161.9	373.159
1164.8	393.273
1167.69	412.289
1170.58	433.635
1173.47	456.938
1176.37	478.384
1179.26	504.543
1182.15	533.115
1185.04	561.376
1187.94	594.136
1190.83	628.539
1193.72	661.961
1196.62	699.903
1199.51	733.915
1202.4	776.814
1205.29	821.852
1208.19	860.096
1211.08	903.52
1213.97	953.293
1216.86	1000.68
1219.76	1045.06
1222.65	1098.09
1225.54	1155.46
1228.43	1198.31
1231.33	1243.05
1234.22	1292.87
1237.11	1339.2
1240.01	1381.8
1242.9	1422.89
1245.79	1467.04
1248.68	1512.28
1251.58	1551.57
1254.47	1588.43
1257.36	1626.44
1260.26	1663.03
1263.15	1687.06
1266.04	1734.17
1268.93	1750.92
1271.83	1770.97
1274.72	1797.5
1277.61	1823.71
1280.5	1834.28
1283.4	1859.95
