Measurement: Raman, 780 nm, unoriented, Raman Data Processed
Mineral: Nissonite
Rruff sample: R100068
Ideal chemistry: Cu^2+^_2_Mg_2_(P^5+^O_4_)_2_(OH)_2_5H_2_O
Locality: Boss mine, Goodsprings district, Clark County, Nevada, USA
Source: Bob Jenkins
Description: Pale blue bladed crystals associated with green malachite
Raman shift (cm-1)	intensity
191.814	0
194.706	2.99783
197.599	3.09425
200.492	3.08562
203.384	3.04836
206.277	6.91879
209.17	7.48688
212.062	6.85199
214.955	6.00783
217.848	4.91598
220.74	1.43209
223.633	1.4898
226.526	0.326111
229.419	0.553299
232.311	0.549194
235.204	2.01092
238.097	2.2699
240.989	2.85564
243.882	3.00579
246.775	2.54076
249.667	1.66216
252.56	0.820694
255.453	1.53717
258.346	2.84047
261.238	3.50402
264.131	1.2166
267.024	0.597404
269.916	2.15791
272.809	2.67304
275.702	1.61019
278.594	1.27195
281.487	1.19175
284.38	0.301041
287.273	2.9837
290.165	1.54876
293.058	0.180855
295.951	0.388237
298.843	0.095673
301.736	1.0499
304.629	1.12517
307.522	1.74338
310.414	2.02667
313.307	0.672424
316.2	0.272774
319.092	1.18367
321.985	1.11514
324.878	1.36218
327.77	2.06727
330.663	2.47209
333.556	1.19336
336.449	0.945351
339.341	1.3235
342.234	2.05155
345.127	2.27536
348.019	1.4736
350.912	1.02284
353.805	2.98682
356.697	1.41579
359.59	2.63443
362.483	1.77248
365.375	1.98615
368.268	3.30854
371.161	1.93106
374.054	4.20884
376.946	2.02126
379.839	0.687645
382.732	2.14108
385.624	0.16407
388.517	0.832394
391.41	1.80214
394.303	1.39179
397.195	1.46095
400.088	1.70141
402.981	2.34129
405.873	3.3143
408.766	1.20284
411.659	2.03445
414.551	2.02289
417.444	0.199486
420.337	1.84116
423.229	0.389477
426.122	0.439198
429.015	2.17512
431.908	1.49561
434.8	1.49362
437.693	0.726662
440.586	0.848446
443.478	0.574184
446.371	0.142124
449.264	0.215359
452.156	0.067539
455.049	0.881824
457.942	1.04332
460.835	0.788528
463.727	2.10809
466.62	0.370216
469.513	1.48125
472.405	1.15009
475.298	0.646534
478.191	0.890656
481.084	0.187939
483.976	0.903473
486.869	0.575775
489.762	1.89007
492.654	2.09846
495.547	3.58645
498.44	2.971
501.332	2.01394
504.225	2.45589
507.118	1.90714
510.01	2.21488
512.903	2.75179
515.796	1.07407
518.689	1.93787
521.581	0.392361
524.474	1.38454
527.367	2.57565
530.259	1.64001
533.152	0.207111
536.045	1.65757
538.938	0.160973
541.83	2.98163
544.723	1.81978
547.616	2.09543
550.508	1.93498
553.401	1.45701
556.294	3.43205
559.186	2.11578
562.079	2.69427
564.972	3.48056
567.865	3.78957
570.757	4.38173
573.65	3.77964
576.543	5.12446
579.435	2.97393
582.328	5.16625
585.221	2.75338
588.114	1.4713
591.006	1.36346
593.899	1.50382
596.792	2.00837
599.684	1.45681
602.577	2.38962
605.47	1.55018
608.362	1.40333
611.255	1.04921
614.148	0.509312
617.04	1.0841
619.933	0.182426
622.826	2.5689
625.719	0.973148
628.611	2.4719
631.504	0.277943
634.397	1.07484
637.289	1.1824
640.182	1.65508
643.075	2.7556
645.967	1.52964
648.86	1.27504
651.753	2.15245
654.646	0.24432
657.538	2.45637
660.431	1.01406
663.324	1.94383
666.216	2.13102
669.109	0.495247
672.002	0.722546
674.894	1.76947
677.787	2.85357
680.68	3.07756
683.573	2.67447
686.465	1.24365
689.358	1.96128
692.251	0.836552
695.143	1.4362
698.036	0.614044
700.929	2.62839
703.822	1.54698
706.714	0.633781
709.607	1.78949
712.5	1.31081
715.392	1.28442
718.285	0.857628
721.178	1.85103
724.07	0.759392
726.963	2.55118
729.856	1.72516
732.749	2.40658
735.641	1.42086
738.534	2.88921
741.427	0.407692
744.319	2.17669
747.212	1.50939
750.105	2.15858
752.997	0.135502
755.89	1.11485
758.783	3.0717
761.676	1.17246
764.568	1.94829
767.461	0.208012
770.354	0.869293
773.246	2.24114
776.139	2.3923
779.032	1.78099
781.924	1.53577
784.817	0.124992
787.71	1.70138
790.602	0.613651
793.495	1.22642
796.388	1.20932
799.281	1.16124
802.173	2.02336
805.066	1.01914
807.959	1.76413
810.851	1.40353
813.744	0.531944
816.637	2.09852
819.529	1.57192
822.422	0.08427
825.315	1.44212
828.208	1.34681
831.1	0.704979
833.993	1.2892
836.886	1.14
839.778	1.37403
842.671	0.59206
845.564	1.85725
848.457	0.223106
851.349	1.74106
854.242	2.9337
857.135	3.7787
860.027	4.24971
862.92	2.82193
865.813	4.13261
868.705	2.30369
871.598	2.74007
874.491	2.6562
877.384	2.64026
880.276	3.5021
883.169	1.57121
886.062	4.06237
888.954	3.42617
891.847	1.29143
894.74	2.48633
897.632	1.26231
900.525	1.69978
903.418	2.52601
906.311	2.97111
909.203	2.72179
912.096	3.26652
914.989	2.20562
917.881	3.36242
920.774	2.28979
923.667	2.5276
926.559	2.70035
929.452	2.1215
932.345	2.74019
935.237	2.6432
938.13	1.70294
941.023	0.834236
943.916	0.786797
946.808	1.50837
949.701	1.52525
952.594	1.63693
955.486	0.438042
958.379	0.459606
961.272	1.2776
964.164	0.977016
967.057	0.780617
969.95	0.863419
972.843	1.07425
975.735	0.812031
978.628	0.310528
981.521	1.7688
984.413	0.09877
987.306	2.47234
990.199	0.672066
993.091	1.8009
995.984	1.09795
998.877	1.93066
1001.77	1.92059
1004.66	1.78361
1007.55	2.32528
1010.45	2.51648
1013.34	2.53609
1016.23	3.05044
1019.13	2.87784
1022.02	5.16797
1024.91	3.55906
1027.8	3.55063
1030.7	1.73497
1033.59	0.331097
1036.48	0.92654
1039.38	0.328651
1042.27	1.0704
1045.16	0.303036
1048.05	0.858551
1050.94	2.31772
1053.84	1.51363
1056.73	1.3776
1059.62	2.21445
1062.52	1.80851
1065.41	1.72986
1068.3	1.74418
1071.19	0.278263
1074.09	3.40934
1076.98	1.6011
1079.87	2.04765
1082.77	0.048634
1085.66	0.794571
1088.55	1.35011
1091.44	1.91552
1094.34	2.90401
1097.23	1.55056
1100.12	0.104462
1103.01	1.57715
1105.91	0.823521
1108.8	2.81143
1111.69	1.76833
1114.59	1.46896
1117.48	0.912746
1120.37	1.46139
1123.26	2.15873
1126.16	2.03882
1129.05	0.774162
1131.94	2.78103
1134.83	1.36666
1137.73	2.79025
1140.62	1.98859
1143.51	1.56831
1146.4	2.21841
1149.3	0.512218
1152.19	2.31602
1155.08	1.98219
1157.97	0.890514
1160.87	0.012241
1163.76	1.25832
1166.65	0.301174
1169.55	0.609406
1172.44	2.01978
1175.33	0.179264
1178.22	0.740192
1181.12	3.32552
1184.01	1.27889
1186.9	3.18526
1189.8	0.987236
1192.69	0.328568
1195.58	1.76458
1198.47	0.07151
1201.37	1.33602
1204.26	0.504028
1207.15	1.33598
1210.04	1.04077
1212.94	1.76371
1215.83	0.090389
1218.72	0.548359
1221.62	1.20836
1224.51	2.1225
1227.4	0.92794
1230.29	1.33767
1233.19	0.438496
1236.08	0.952927
1238.97	1.72049
1241.86	3.01594
1244.76	1.97528
1247.65	2.96019
1250.54	0.249641
1253.43	1.14506
1256.33	2.33057
1259.22	0.528862
1262.11	3.70545
1265.01	1.1643
1267.9	0.86805
1270.79	1.48186
1273.68	1.7686
1276.58	1.64052
1279.47	1.30989
1282.36	1.22504
1285.25	0.174084
