Measurement: Raman, 780 nm, unoriented, Raman Data Processed
Mineral: Nuffieldite
Rruff sample: R100113
Ideal chemistry: Pb^2+^_2_Cu^1+^_1.4_(Pb^2+^_0.4_Bi^3+^_0.4_Sb^3+^_0.2_)Bi^3+^_2_S^2-^_7_
Locality: British Columbia Molybdenum mine, Kitsault, British Columbia, Canada
Source: Robert Woodside
Description: Steel-gray striated prismatic crystals in quartz
Measured chemistry: Pb_2.00_(Cu_1.22_Sb_0.06_)_Σ=1.28_(Bi_0.71_Pb_0.23_Sb_0.06_)_Σ=1.00_Bi_2.00_S_7_ (Light phases are galena)
Raman shift (cm-1)	intensity
144.763	0
147.655	2.11342
150.548	7.50913
153.441	5.08484
156.333	9.74311
159.226	4.88652
162.119	3.72765
165.012	6.28064
167.904	14.1489
170.797	7.07588
173.69	1.94826
176.582	16.1596
179.475	7.99784
182.368	4.73543
185.26	5.94281
188.153	6.01676
191.046	4.10692
193.939	2.90829
196.831	1.50498
199.724	6.12903
202.617	3.59485
205.509	10.3088
208.402	4.4616
211.295	1.85111
214.187	0.948278
217.08	4.20487
219.973	3.95685
222.865	1.79908
225.758	8.3439
228.651	8.99515
231.544	1.35541
234.436	5.82935
237.329	2.38513
240.222	6.88061
243.114	2.6505
246.007	5.42706
248.9	0.830311
251.792	6.87394
254.685	3.76374
257.578	8.24062
260.471	7.54981
263.363	10.4086
266.256	8.33481
269.149	12.8863
272.041	7.61782
274.934	15.4269
277.827	10.2714
280.719	16.9169
283.612	11.5205
286.505	9.96625
289.398	9.56335
292.29	6.56602
295.183	6.31257
298.076	7.74986
300.968	5.8521
303.861	2.02212
306.754	0.577902
309.647	1.20861
312.539	6.97066
315.432	3.75523
318.325	0.86686
321.217	2.54495
324.11	7.94348
327.003	9.33471
329.895	0.661784
332.788	1.05554
335.681	4.91006
338.573	7.52224
341.466	1.60214
344.359	8.77958
347.252	5.3977
350.144	9.89071
353.037	6.57082
355.93	8.04013
358.822	7.52256
361.715	7.37569
364.608	8.12202
367.5	3.46376
370.393	7.50672
373.286	4.8577
376.178	6.88525
379.071	8.99756
381.964	0.756997
384.857	9.26366
387.749	9.07993
390.642	4.44833
393.535	11.3785
396.427	3.45416
399.32	2.05319
402.213	11.0599
405.106	5.16058
407.998	4.37921
410.891	7.75545
413.784	9.07598
416.676	7.76954
419.569	2.23147
422.462	3.00474
425.354	1.54991
428.247	8.56851
431.14	5.09743
434.033	2.35493
436.925	0.71731
439.818	7.69642
442.711	1.16166
445.603	3.32861
448.496	2.25241
451.389	6.88722
454.281	5.51029
457.174	0.272342
460.067	1.74784
462.959	2.03462
465.852	3.88429
468.745	7.52862
471.637	4.59816
474.53	5.94886
477.423	5.6447
480.316	1.51333
483.208	8.85633
486.101	2.24063
488.994	6.03868
491.886	1.12029
494.779	0.777192
497.672	5.15877
500.565	7.33687
503.457	0.041306
506.35	3.06079
509.243	4.26617
512.135	3.46772
515.028	7.71122
517.921	0.616193
520.813	2.34306
523.706	3.56251
526.599	3.50315
529.491	2.79546
532.384	6.61994
535.277	0.816449
538.17	5.78164
541.062	1.01515
543.955	2.34634
546.848	4.03277
549.74	2.29148
552.633	8.01506
555.526	12.6943
558.418	5.98831
561.311	2.48243
564.204	7.78412
567.097	0.613224
569.989	5.68117
572.882	2.83242
575.775	1.69361
578.667	1.83688
581.56	4.31209
584.453	0.489096
587.346	3.32536
590.238	5.12254
593.131	2.91649
596.024	0.941757
598.916	0.283181
601.809	4.6502
604.702	9.25097
607.594	2.23705
610.487	3.66706
613.38	2.57169
616.273	1.2816
619.165	6.49353
622.058	8.52126
624.951	0.513271
627.843	3.97494
630.736	6.38961
633.629	2.9613
636.521	4.13699
639.414	10.1042
642.307	3.60798
645.199	3.21298
648.092	6.10261
650.985	4.34929
653.878	4.60908
656.77	0.022708
659.663	7.81973
662.556	7.47341
665.448	8.79052
668.341	4.41318
671.234	7.67968
674.126	6.32605
677.019	5.40996
679.912	3.74633
682.804	5.4201
685.697	3.8936
688.59	6.92024
691.483	2.30529
694.375	5.63263
697.268	3.16085
700.161	1.90949
703.053	3.03116
705.946	4.06518
708.839	3.94411
711.731	1.12799
714.624	0.084406
717.517	5.53303
720.409	0.91392
723.302	5.94942
726.195	4.16541
729.088	1.80534
731.98	2.70887
734.873	4.10115
737.766	8.72096
740.658	4.59653
743.551	0.843416
746.444	2.25004
749.337	4.94289
752.229	4.58017
755.122	6.31804
758.015	10.6316
760.907	6.48431
763.8	4.08003
766.693	3.53396
769.585	5.09102
772.478	8.41087
775.371	3.04812
778.264	7.3983
781.156	4.37562
784.049	2.99798
786.942	0.71685
789.834	5.85345
792.727	0.656112
795.62	2.48221
798.512	1.90084
801.405	2.36357
804.298	0.778412
807.191	4.42716
810.083	3.10066
812.976	5.04286
815.869	0.718129
818.761	3.10209
821.654	3.05194
824.547	3.46196
827.439	3.71006
830.332	4.38862
833.225	1.17191
836.117	2.21671
839.01	0.923666
841.903	1.37677
844.796	2.57351
847.688	8.1088
850.581	6.20772
853.474	5.76461
856.366	7.01436
859.259	5.8904
862.152	3.65047
865.044	8.11139
867.937	10.2499
870.83	0.973094
873.722	4.84987
876.615	3.82169
879.508	6.27964
882.401	2.97668
885.293	1.74424
888.186	2.09219
891.079	5.89927
893.971	2.44485
896.864	5.98007
899.757	1.71091
902.649	8.84361
905.542	2.21137
908.435	4.00206
911.328	11.0112
914.22	6.24168
917.113	1.26334
920.006	2.55163
922.898	6.92753
925.791	5.10663
928.684	4.75334
931.577	9.59722
934.469	5.03473
937.362	3.24607
940.255	6.76756
943.147	3.46595
946.04	1.52818
948.933	6.21934
951.825	3.85362
954.718	8.69492
957.611	1.42099
960.504	7.30353
963.396	1.48187
966.289	6.92127
969.182	6.42128
972.074	2.86536
974.967	4.94186
977.86	1.93013
980.752	0.14809
983.645	5.55984
986.538	2.30352
989.431	3.85649
992.323	5.41866
995.216	7.91706
998.109	10.1219
1001	7.18451
1003.89	5.09282
1006.79	2.79292
1009.68	5.15456
1012.57	4.57326
1015.47	7.17719
1018.36	0.462295
1021.25	4.06744
1024.14	4.76035
1027.04	6.67916
1029.93	7.19754
1032.82	0.662173
1035.71	9.46145
1038.61	5.72756
1041.5	4.52045
1044.39	3.23141
1047.28	5.78045
1050.18	5.28177
1053.07	6.71273
1055.96	3.59372
1058.86	5.77007
1061.75	5.56474
1064.64	6.45029
1067.53	2.83594
1070.43	4.58221
1073.32	4.98439
1076.21	6.68583
1079.1	1.96529
1082	4.66438
1084.89	8.58429
1087.78	10.8733
1090.67	4.32956
1093.57	6.11116
1096.46	3.10349
1099.35	0.897949
1102.25	0.324667
1105.14	6.32886
1108.03	7.02672
1110.92	6.92251
1113.82	5.81939
1116.71	5.91009
1119.6	5.94833
1122.49	7.40206
1125.39	7.6277
1128.28	4.46558
1131.17	5.07254
1134.07	0.072477
1136.96	9.52557
1139.85	3.78937
1142.74	6.3095
1145.64	11.4941
1148.53	8.38562
1151.42	4.69043
1154.31	4.89405
1157.21	11.2388
1160.1	7.83001
1162.99	4.65982
1165.88	8.50694
1168.78	6.43872
1171.67	8.68617
1174.56	2.36816
1177.46	5.40363
1180.35	3.76359
1183.24	5.00848
1186.13	10.5935
1189.03	9.99367
1191.92	3.5888
1194.81	8.60785
1197.7	3.38164
1200.6	5.67206
1203.49	3.36101
1206.38	5.49626
1209.28	5.50537
1212.17	11.96
1215.06	4.93469
1217.95	9.94961
1220.85	3.34365
1223.74	1.66635
1226.63	5.00914
1229.52	6.72758
1232.42	5.77806
1235.31	1.89592
1238.2	6.21752
1241.1	1.63268
1243.99	3.18122
1246.88	4.33842
1249.77	7.65847
1252.67	7.57521
1255.56	1.00999
1258.45	1.79011
1261.34	1.47549
1264.24	6.61665
1267.13	4.51514
1270.02	3.57784
1272.91	4.38708
1275.81	3.48679
1278.7	10.0813
1281.59	0.654655
1284.49	0.007348
