Measurement: Raman, 780 nm, unoriented, Raman Data Processed
Mineral: Nuffieldite
Rruff sample: R110088
Ideal chemistry: Pb^2+^_2_Cu^1+^_1.4_(Pb^2+^_0.4_Bi^3+^_0.4_Sb^3+^_0.2_)Bi^3+^_2_S^2-^_7_
Locality: Crabtree quarry, Wake County, North Carolina, USA
Source: Mark N. Feinglos
Description: Bright silvery-white metallic massive associated with quartz
Measured chemistry: Pb_2.00_(Cu_1.16_Sb_0.05_)_Σ=1.21_(Bi_0.64_Pb_0.18_Sb_0.18_)_Σ=1.00_Bi_2.00_S_7_
Raman shift (cm-1)	intensity
207.794	0
210.686	0.336525
213.579	0.793716
216.472	2.82517
219.364	6.01273
222.257	6.83205
225.15	9.58166
228.042	13.14
230.935	15.2827
233.828	16.3221
236.721	16.3025
239.613	18.9151
242.506	18.351
245.399	20.1017
248.291	20.9566
251.184	20.801
254.077	20.855
256.969	22.682
259.862	23.5551
262.755	21.2852
265.648	24.8764
268.54	22.537
271.433	24.2626
274.326	21.9716
277.218	21.044
280.111	23.8277
283.004	23.5862
285.897	21.5786
288.789	19.9324
291.682	16.5951
294.575	14.6206
297.467	12.8743
300.36	8.89956
303.253	5.34339
306.145	2.82933
309.038	2.38722
311.931	1.79627
314.824	0.123959
317.716	0.184189
320.609	0.955467
323.502	0.483803
326.394	0.005424
329.287	0.22065
332.18	0.017582
335.072	0.103462
337.965	0.616161
340.858	0.229683
343.75	1.22907
346.643	1.74646
349.536	0.888317
352.429	1.60198
355.321	2.50446
358.214	2.70668
361.107	1.80217
364	3.50192
366.892	1.68531
369.785	2.21812
372.678	3.28171
375.57	3.78308
378.463	3.47211
381.356	1.60106
384.248	1.51395
387.141	2.27982
390.034	2.25429
392.926	0.317877
395.819	1.00059
398.712	1.93613
401.605	1.28194
404.497	0.563484
407.39	1.22609
410.283	0.339521
413.175	2.0382
416.068	2.39978
418.961	2.68306
421.853	2.14295
424.746	0.743578
427.639	2.35566
430.532	1.97195
433.424	2.69553
436.317	1.13694
439.21	2.20482
442.102	2.53957
444.995	3.53553
447.888	3.81529
450.781	1.56253
453.673	3.03491
456.566	2.1121
459.459	3.29425
462.351	2.91445
465.244	1.78266
468.137	2.15281
471.029	2.53057
473.922	1.24033
476.815	1.80943
479.707	0.076757
482.6	1.74304
485.493	0.956808
488.386	1.85464
491.278	1.83868
494.171	1.07655
497.064	0.581039
499.956	0.858406
502.849	0.61216
505.742	0.575624
508.635	0.827272
511.527	1.59457
514.42	0.687206
517.313	0.892124
520.205	0.328941
523.098	0.558052
525.991	2.01736
528.883	0.972506
531.776	2.52962
534.669	1.62461
537.562	1.7611
540.454	1.49138
543.347	2.17609
546.24	1.16931
549.132	2.17627
552.025	1.78095
554.918	2.2085
557.81	2.01924
560.703	0.988003
563.596	2.48197
566.489	0.210419
569.381	1.54151
572.274	2.94922
575.167	0.190632
578.059	0.696716
580.952	0.545612
583.845	1.31552
586.737	0.686163
589.63	2.40979
592.523	2.77167
595.415	1.89584
598.308	3.38931
601.201	2.30572
604.094	1.1108
606.986	2.33352
609.879	1.40782
612.772	1.90128
615.664	0.563549
618.557	1.61166
621.45	1.27737
624.342	0.807329
627.235	1.41611
630.128	2.14208
633.021	2.17724
635.913	0.807871
638.806	2.26079
641.699	2.25069
644.591	1.33932
647.484	1.84919
650.377	1.65786
653.269	1.26856
656.162	1.47199
659.055	1.88425
661.948	2.39547
664.84	1.52319
667.733	1.33328
670.626	1.84012
673.518	1.03762
676.411	1.36815
679.304	1.77964
682.197	2.43579
685.089	1.37545
687.982	1.09389
690.875	1.17556
693.767	1.68021
696.66	1.74142
699.553	1.34574
702.445	1.4528
705.338	1.12441
708.231	0.911985
711.124	0.400328
714.016	0.50515
716.909	1.34378
719.802	1.97212
722.694	1.79147
725.587	0.749264
728.48	0.923107
731.372	0.488251
734.265	0.503643
737.158	2.37662
740.051	0.176262
742.943	1.93852
745.836	1.78912
748.729	1.25821
751.621	1.34563
754.514	0.730896
757.407	1.52811
760.299	1.17211
763.192	0.349129
766.085	0.604338
768.977	1.15033
771.87	0.189837
774.763	2.4329
777.656	0.127264
780.548	2.46868
783.441	1.53164
786.334	1.74608
789.226	0.125763
792.119	0.833641
795.012	1.07821
797.904	0.170568
800.797	0.404247
803.69	1.26745
806.583	2.29868
809.475	0.859236
812.368	1.32708
815.261	0.757217
818.153	0.831102
821.046	1.45407
823.939	1.07758
826.832	2.37349
829.724	1.61892
832.617	2.24004
835.51	1.55529
838.402	1.51392
841.295	1.20388
844.188	0.187365
847.08	1.34912
849.973	1.43209
852.866	1.15631
855.759	1.13714
858.651	1.12289
861.544	1.5491
864.437	2.60451
867.329	1.2946
870.222	1.71372
873.115	0.997829
876.007	1.53464
878.9	1.15776
881.793	1.52402
884.686	0.413342
887.578	1.41987
890.471	0.377748
893.364	1.77432
896.256	0.028231
899.149	0.987516
902.042	1.15232
904.934	0.956573
907.827	0.034834
910.72	0.122257
913.612	1.20224
916.505	0.618652
919.398	0.311432
922.291	0.136805
925.183	1.04743
928.076	0.079363
930.969	1.04364
933.861	0.368452
936.754	0.518353
939.647	0.986576
942.539	0.124027
945.432	0.002787
948.325	1.57062
951.218	1.26487
954.11	0.234642
957.003	1.04475
959.896	0.536722
962.788	1.71755
965.681	0.685715
968.574	0.005821
971.466	0.923681
974.359	1.69717
977.252	1.6263
980.145	0.917559
983.037	0.61958
985.93	1.5081
988.823	1.37136
991.715	1.66908
994.608	1.55117
997.501	1.89298
1000.39	0.900755
1003.29	1.31319
1006.18	0.859582
1009.07	1.66575
1011.96	2.55108
1014.86	1.06178
1017.75	0.477683
1020.64	0.986433
1023.53	1.54962
1026.43	1.42338
1029.32	1.84305
1032.21	1.77832
1035.11	1.36445
1038	0.095603
1040.89	0.734737
1043.78	1.83968
1046.68	1.74547
1049.57	0.963053
1052.46	0.937683
1055.36	0.633739
1058.25	1.8132
1061.14	0.67732
1064.03	2.25968
1066.93	1.28586
1069.82	0.525375
1072.71	2.46038
1075.6	1.84903
1078.5	0.063976
1081.39	1.50933
1084.28	2.25838
1087.17	1.53631
1090.07	1.20932
1092.96	0.617489
1095.85	1.60758
1098.74	0.779655
1101.64	0.388587
1104.53	0.286328
1107.42	0.359505
1110.32	0.675728
1113.21	0.565888
1116.1	1.60665
1118.99	1.48314
1121.89	0.892227
1124.78	1.80553
1127.67	0.177058
1130.57	0.568797
1133.46	0.871408
1136.35	1.57987
1139.24	0.301799
1142.14	0.295409
1145.03	1.21072
1147.92	0.531057
1150.81	0.262758
1153.71	0.295547
1156.6	1.77075
1159.49	0.704044
1162.38	2.22789
1165.28	1.71972
1168.17	2.63891
1171.06	1.38029
1173.96	1.90786
1176.85	1.29007
1179.74	0.778576
1182.63	1.54525
1185.53	2.29677
1188.42	1.54669
1191.31	2.36061
1194.2	1.2302
1197.1	1.12582
1199.99	1.20156
1202.88	1.76933
1205.78	1.36267
1208.67	1.23771
1211.56	3.18925
1214.45	0.408249
1217.35	0.993013
1220.24	1.99036
1223.13	0.991135
1226.02	0.729252
1228.92	0.911594
1231.81	1.11262
1234.7	1.00548
1237.6	1.19687
1240.49	2.49542
1243.38	2.90819
1246.27	1.59858
1249.17	0.241047
1252.06	2.55887
1254.95	2.77763
1257.84	1.48672
1260.74	1.8292
1263.63	0.067785
1266.52	1.92665
1269.41	1.56199
1272.31	2.22256
1275.2	2.7504
1278.09	0.251883
1280.98	1.57254
1283.88	0.125528
