Measurement: Raman, 532 nm, unoriented, Raman Data Processed
Mineral: Nuffieldite
Rruff sample: R110088
Ideal chemistry: Pb^2+^_2_Cu^1+^_1.4_(Pb^2+^_0.4_Bi^3+^_0.4_Sb^3+^_0.2_)Bi^3+^_2_S^2-^_7_
Locality: Crabtree quarry, Wake County, North Carolina, USA
Source: Mark N. Feinglos
Description: Bright silvery-white metallic massive associated with quartz
Measured chemistry: Pb_2.00_(Cu_1.16_Sb_0.05_)_Σ=1.21_(Bi_0.64_Pb_0.18_Sb_0.18_)_Σ=1.00_Bi_2.00_S_7_
Raman shift (cm-1)	intensity
185.951	0
188.844	0.07074
191.737	2.00307
194.629	0.497025
197.522	3.31099
200.415	6.89363
203.308	7.22514
206.2	9.6149
209.093	12.123
211.986	15.0426
214.878	16.0025
217.771	19.8139
220.664	24.2924
223.556	25.7475
226.449	29.4613
229.342	31.5854
232.234	35.8094
235.127	37.1952
238.02	40.6604
240.913	43.6022
243.805	49.606
246.698	52.3548
249.591	57.8128
252.483	59.2706
255.376	59.7015
258.269	58.8316
261.161	53.3951
264.054	51.8722
266.947	44.571
269.84	40.1508
272.732	30.4064
275.625	24.7756
278.518	21.8694
281.41	16.845
284.303	14.9384
287.196	10.3557
290.089	5.58646
292.981	6.33578
295.874	6.1261
298.767	3.92833
301.659	2.36484
304.552	0.494064
307.445	1.51376
310.337	0.066353
313.23	1.16073
316.123	1.35121
319.015	0.390427
321.908	0.040337
324.801	0.338638
327.694	0.66069
330.586	0.011375
333.479	0.117004
336.372	0.513458
339.264	0.640503
342.157	1.11112
345.05	2.0423
347.942	3.26253
350.835	2.07198
353.728	2.77805
356.621	2.04061
359.513	3.0619
362.406	3.59604
365.299	2.81941
368.191	1.31924
371.084	1.12028
373.977	2.07546
376.87	1.56696
379.762	0.927948
382.655	0.235451
385.548	0.367069
388.44	0.77393
391.333	0.867062
394.226	0.862961
397.118	0.928028
400.011	0.856098
402.904	0.042053
405.796	0.599098
408.689	1.42383
411.582	1.54743
414.475	1.45204
417.367	2.78278
420.26	4.97018
423.153	5.07661
426.045	5.86123
428.938	7.3333
431.831	8.03781
434.724	8.85226
437.616	9.1695
440.509	11.5034
443.402	13.3209
446.294	13.6761
449.187	10.3244
452.08	10.3883
454.972	8.20994
457.865	10.8074
460.758	9.65731
463.651	10.0205
466.543	10.0089
469.436	6.62933
472.329	6.96662
475.221	4.84187
478.114	4.74568
481.007	4.88308
483.899	4.30706
486.792	4.0899
489.685	3.71271
492.577	2.55213
495.47	1.90557
498.363	1.38775
501.256	0.999611
504.148	0.480042
507.041	2.07643
509.934	0.021481
512.826	0.644207
515.719	0.071194
518.612	1.70185
521.505	1.00856
524.397	2.26085
527.29	1.91668
530.183	3.8451
533.075	5.37446
535.968	3.25287
538.861	3.44789
541.753	2.77895
544.646	3.16931
547.539	1.85146
550.432	3.16322
553.324	1.16214
556.217	2.75609
559.11	2.68858
562.002	2.41608
564.895	3.59754
567.788	0.817471
570.68	1.11154
573.573	3.07332
576.466	0.583828
579.359	1.27063
582.251	1.19146
585.144	0.664951
588.037	0.443439
590.929	2.20623
593.822	2.84103
596.715	2.95762
599.607	4.20838
602.5	3.37157
605.393	1.5141
608.285	2.92613
611.178	3.22812
614.071	3.26645
616.964	1.38269
619.856	2.9613
622.749	3.11588
625.642	1.21043
628.534	1.2687
631.427	0.463135
634.32	2.29572
637.212	0.65517
640.105	1.84932
642.998	1.31237
645.891	1.57764
648.783	1.00678
651.676	1.449
654.569	0.692333
657.461	2.55989
660.354	1.51127
663.247	1.86313
666.139	1.37913
669.032	1.40071
671.925	2.53303
674.818	1.6634
677.71	1.38188
680.603	1.86619
683.496	2.83333
686.388	1.463
689.281	2.01613
692.174	3.26268
695.067	1.10121
697.959	2.17501
700.852	2.12121
703.745	0.89587
706.637	1.44224
709.53	1.65816
712.423	1.75544
715.315	0.657913
718.208	0.314491
721.101	0.173405
723.994	0.233448
726.886	1.31329
729.779	1.32992
732.672	0.249165
735.564	0.608604
738.457	0.311283
741.35	2.24403
744.242	0.012604
747.135	2.32465
750.028	1.2512
752.92	1.5653
755.813	1.41983
758.706	0.741917
761.599	1.36287
764.491	1.49411
767.384	0.490261
770.277	0.759075
773.169	1.3815
776.062	0.666481
778.955	2.08872
781.847	1.41779
784.74	2.83505
787.633	1.71992
790.526	2.13038
793.418	0.132275
796.311	0.992523
799.204	2.01159
802.096	1.15627
804.989	1.13686
807.882	1.74577
810.774	3.92378
813.667	1.34642
816.56	3.96014
819.453	1.57954
822.345	2.89853
825.238	3.95657
828.131	1.44418
831.023	3.45209
833.916	2.81076
836.809	4.86838
839.702	4.17424
842.594	3.24473
845.487	3.84108
848.38	2.76629
851.272	3.29458
854.165	4.40509
857.058	4.18767
859.95	4.60267
862.843	4.00224
865.736	3.35716
868.629	2.90935
871.521	2.56916
874.414	4.84615
877.307	2.34679
880.199	2.03658
883.092	3.61015
885.985	3.14364
888.877	2.26619
891.77	0.903519
894.663	2.29935
897.556	1.46191
900.448	1.38609
903.341	0.675228
906.234	1.49334
909.126	1.73323
912.019	1.31544
914.912	0.519276
917.804	0.825378
920.697	1.63515
923.59	0.437939
926.482	0.778984
929.375	0.206951
932.268	0.243103
935.161	0.544743
938.053	0.903812
940.946	0.722977
943.839	0.118622
946.731	2.35953
949.624	0.072723
952.517	0.01096
955.409	1.64345
958.302	2.13149
961.195	1.15497
964.088	0.840553
966.98	1.50693
969.873	1.45287
972.766	0.849426
975.658	1.48521
978.551	1.64574
981.444	1.49282
984.337	2.39557
987.229	0.691113
990.122	0.713985
993.015	0.362747
995.907	1.63232
998.8	0.287113
1001.69	1.4912
1004.59	0.675728
1007.48	0.656349
1010.37	1.33186
1013.26	0.718204
1016.16	0.736328
1019.05	0.84005
1021.94	2.40481
1024.83	1.24344
1027.73	1.0825
1030.62	1.05962
1033.51	1.56944
1036.4	2.37734
1039.3	2.37579
1042.19	2.34261
1045.08	2.10216
1047.98	0.957405
1050.87	0.625721
1053.76	1.96177
1056.65	1.74782
1059.55	1.51057
1062.44	1.385
1065.33	0.719891
1068.22	0.500259
1071.12	1.60932
1074.01	0.749924
1076.9	0.006653
1079.8	0.66148
1082.69	2.11554
1085.58	2.29468
1088.47	0.893475
1091.37	0.834682
1094.26	1.73251
1097.15	1.69708
1100.04	1.12
1102.94	0.918388
1105.83	0.063709
1108.72	1.39613
1111.62	1.19403
1114.51	1.5938
1117.4	1.06015
1120.29	0.037941
1123.19	1.28329
1126.08	0.755978
1128.97	1.50098
1131.86	2.28925
1134.76	0.180901
1137.65	2.44821
1140.54	0.170078
1143.43	0.347332
1146.33	0.093952
1149.22	1.02163
1152.11	0.420658
1155.01	0.284111
1157.9	1.15116
1160.79	0.477306
1163.68	0.6898
1166.58	0.661812
1169.47	1.62647
1172.36	1.64315
1175.26	1.87596
1178.15	2.0308
1181.04	2.84092
1183.93	2.12016
1186.83	0.899254
1189.72	2.00762
1192.61	2.93404
1195.5	2.06678
1198.4	3.49278
1201.29	1.04926
1204.18	2.14368
1207.07	2.58683
1209.97	1.69166
1212.86	1.27056
1215.75	2.32441
1218.64	1.62083
1221.54	2.0433
1224.43	1.63512
1227.32	4.77858
1230.22	2.93105
1233.11	3.13524
1236	1.68438
1238.89	2.55327
1241.79	2.63082
1244.68	2.83738
1247.57	2.07917
1250.46	2.62522
1253.36	2.17292
1256.25	3.20174
1259.14	3.47748
1262.04	1.86505
1264.93	0.527313
1267.82	2.51076
1270.71	2.52776
1273.61	2.34023
1276.5	2.86295
1279.39	0.277016
1282.29	2.25796
1285.18	0.930992
1288.07	3.2718
1290.96	3.00888
1293.86	2.01885
1296.75	1.64362
1299.64	2.1537
1302.53	0.460388
