Measurement: Raman, 780 nm, unoriented, Raman Data Processed
Mineral: Olivenite
Rruff sample: R050532
Ideal chemistry: Cu^2+^_2_As^5+^O_4_(OH)
Locality: Tsumeb mine, Tsumeb, Otavi District, Oshikoto, Namibia
Source: University of Arizona Mineral Museum
Description: Dark green prismatic crystals on botryoidal bayldonite R050670
Measured chemistry: (Cu_0.99_Zn_0.01_)_2_(As_1.00_O_4_)(OH)
Raman shift (cm-1)	intensity
146.856	0
149.749	1.01126
152.642	1.12133
155.534	0.531525
158.427	1.55796
161.32	1.35787
164.212	1.99071
167.105	1.56637
169.998	4.47411
172.89	2.75762
175.783	1.32289
178.676	1.05292
181.569	0.487687
184.461	1.21705
187.354	1.41214
190.247	2.3965
193.139	2.52499
196.032	3.05142
198.925	2.6633
201.817	4.14688
204.71	3.73072
207.603	2.78096
210.495	4.00931
213.388	4.44169
216.281	5.23192
219.174	3.41926
222.066	4.25063
224.959	4.09674
227.852	5.20568
230.744	3.13523
233.637	2.42226
236.53	1.6186
239.423	2.25334
242.315	2.17531
245.208	0.457201
248.101	1.36483
250.993	2.63386
253.886	1.5464
256.779	0.74381
259.671	2.08726
262.564	2.89854
265.457	3.26552
268.349	3.57809
271.242	4.46968
274.135	3.0636
277.028	4.5239
279.92	4.07648
282.813	3.31916
285.706	3.86412
288.598	3.38235
291.491	3.01596
294.384	2.64347
297.276	2.76705
300.169	1.30935
303.062	2.07126
305.955	1.87713
308.847	0.795322
311.74	3.29273
314.633	1.02537
317.525	2.92302
320.418	1.90224
323.311	2.33246
326.204	0.101526
329.096	1.37811
331.989	0.159265
334.882	1.01674
337.774	1.06028
340.667	1.90717
343.56	3.92882
346.452	1.097
349.345	4.29408
352.238	0.793575
355.13	2.76479
358.023	1.869
360.916	2.07043
363.809	0.105042
366.701	0.881366
369.594	0.923758
372.487	1.64222
375.379	0.641087
378.272	0.989111
381.165	0.813421
384.058	0.467199
386.95	0.200193
389.843	1.40268
392.736	1.10271
395.628	2.34392
398.521	1.82663
401.414	2.91034
404.306	0.857882
407.199	0.733596
410.092	1.16308
412.985	0.333422
415.877	1.37926
418.77	0.683996
421.663	2.55249
424.555	1.21198
427.448	1.31754
430.341	2.51121
433.233	0.45121
436.126	0.907008
439.019	3.06657
441.911	1.60065
444.804	3.19507
447.697	0.107046
450.59	0.951046
453.482	0.740519
456.375	2.88252
459.268	2.39004
462.16	1.25963
465.053	2.22719
467.946	0.023378
470.839	1.59662
473.731	3.07735
476.624	1.87373
479.517	3.27397
482.409	3.08169
485.302	2.27557
488.195	2.9229
491.087	2.52766
493.98	3.44816
496.873	2.0127
499.765	1.78567
502.658	2.1784
505.551	1.9672
508.444	2.77156
511.336	2.47316
514.229	1.79502
517.122	1.34428
520.014	0.757075
522.907	1.94599
525.8	1.79022
528.692	1.94297
531.585	0.760757
534.478	0.894503
537.371	0.797531
540.263	2.01621
543.156	1.72747
546.049	1.61863
548.941	1.45959
551.834	2.3799
554.727	0.69381
557.62	2.07268
560.512	0.691738
563.405	3.72463
566.298	0.778806
569.19	0.960293
572.083	0.694626
574.976	0.788772
577.868	2.94992
580.761	2.75325
583.654	0.673855
586.546	1.28792
589.439	0.759768
592.332	1.20108
595.225	2.20181
598.117	0.268577
601.01	1.38828
603.903	0.383927
606.795	0.436421
609.688	1.26285
612.581	2.17447
615.473	3.33252
618.366	0.690628
621.259	0.495091
624.152	1.48044
627.044	1.80714
629.937	1.45735
632.83	1.59949
635.722	0.504802
638.615	0.953017
641.508	1.27177
644.4	2.04406
647.293	2.67822
650.186	1.08282
653.079	1.96675
655.971	2.14849
658.864	1.63329
661.757	0.544732
664.649	2.51182
667.542	2.634
670.435	0.756847
673.327	0.450944
676.22	2.00761
679.113	0.671399
682.006	2.8214
684.898	0.547071
687.791	2.11197
690.684	1.39144
693.576	1.79941
696.469	1.04521
699.362	2.62466
702.255	1.25037
705.147	2.76955
708.04	1.98284
710.933	1.23202
713.825	1.44232
716.718	1.66816
719.611	2.02083
722.503	1.99987
725.396	1.97684
728.289	1.77617
731.182	1.06955
734.074	1.52682
736.967	1.34886
739.86	0.963424
742.752	0.019889
745.645	2.86041
748.538	2.08262
751.43	1.05233
754.323	1.27785
757.216	2.25661
760.109	1.45593
763.001	3.26397
765.894	1.58704
768.787	1.8457
771.679	1.29873
774.572	0.270412
777.465	0.038465
780.357	1.54484
783.25	1.53655
786.143	2.82022
789.035	0.947195
791.928	2.72168
794.821	0.872357
797.714	1.29063
800.606	1.14308
803.499	2.18227
806.392	1.18644
809.284	1.46496
812.177	1.79299
815.07	2.24207
817.962	2.91616
820.855	1.85561
823.748	3.06321
826.641	3.68915
829.533	3.59581
832.426	6.10299
835.319	7.44276
838.211	8.87196
841.104	10.821
843.997	11.9814
846.889	12.1258
849.782	12.7996
852.675	13.5807
855.568	9.68994
858.46	6.64353
861.353	5.57066
864.246	3.46278
867.138	2.08591
870.031	2.73943
872.924	1.79011
875.817	2.38054
878.709	1.7026
881.602	1.99751
884.495	1.70983
887.387	2.53953
890.28	1.68372
893.173	0.854032
896.065	0.770008
898.958	1.07508
901.851	1.44379
904.744	0.916416
907.636	0.665911
910.529	0.677155
913.422	0.602922
916.314	0.149597
919.207	0.875904
922.1	1.46918
924.992	1.1399
927.885	1.76708
930.778	0.73811
933.67	0.354636
936.563	0.048979
939.456	0.931694
942.348	0.968721
945.241	1.01999
948.134	1.53186
951.027	2.16148
953.919	0.443841
956.812	1.25638
959.705	2.60718
962.597	0.698083
965.49	0.786206
968.383	1.32967
971.275	1.2262
974.168	2.2097
977.061	1.68097
979.954	0.713725
982.846	1.53635
985.739	3.25369
988.632	1.89741
991.524	0.581328
994.417	0.757776
997.31	1.82374
1000.2	2.61658
1003.1	0.181605
1005.99	1.98589
1008.88	2.33341
1011.77	2.04838
1014.67	1.34851
1017.56	1.67636
1020.45	1.48645
1023.34	1.00048
1026.24	3.54563
1029.13	2.34904
1032.02	1.84904
1034.91	1.33828
1037.81	0.539489
1040.7	2.51909
1043.59	1.32587
1046.49	1.07298
1049.38	1.95088
1052.27	1.63927
1055.16	0.997232
1058.06	1.98249
1060.95	0.361228
1063.84	3.1697
1066.73	1.63462
1069.63	3.45034
1072.52	2.5192
1075.41	1.43597
1078.31	1.9305
1081.2	1.89449
1084.09	1.31115
1086.98	0.770272
1089.88	1.60852
1092.77	1.3596
1095.66	0.606462
1098.55	0.938727
1101.45	0.086804
1104.34	1.24165
1107.23	1.21385
1110.12	1.02587
1113.02	0.781061
1115.91	0.536464
1118.8	1.12045
1121.7	1.65669
1124.59	0.40547
1127.48	0.122991
1130.37	0.951997
1133.27	1.26951
1136.16	1.59943
1139.05	0.395435
1141.94	0.502372
1144.84	2.61283
1147.73	0.451204
1150.62	1.72454
1153.52	0.046107
1156.41	1.73788
1159.3	0.356206
1162.19	0.901476
1165.09	1.81113
1167.98	2.4466
1170.87	2.64114
1173.77	1.07001
1176.66	2.32134
1179.55	0.057162
1182.44	1.57747
1185.34	1.62759
1188.23	1.97694
1191.12	1.0924
1194.01	1.96815
1196.91	0.184338
1199.8	1.05213
1202.69	2.06116
1205.58	0.25927
1208.48	1.72921
1211.37	2.7331
1214.26	1.10403
1217.15	2.25146
1220.05	1.61359
1222.94	1.27017
1225.83	1.3225
1228.73	0.802588
1231.62	2.64281
1234.51	1.75539
1237.4	0.748827
1240.3	1.56018
1243.19	1.64496
1246.08	3.1672
1248.97	1.05699
1251.87	1.42543
1254.76	1.59337
1257.65	1.18085
1260.55	2.51283
1263.44	0.855491
1266.33	1.37008
1269.22	2.20153
1272.12	0.771451
1275.01	1.13841
1277.9	2.26856
1280.79	1.83948
1283.69	0.35748
