Measurement: Raman, 780 nm, unoriented, Raman Data Processed
Mineral: Ondrusite
Rruff sample: R141029
Ideal chemistry: CaCu^2+^_4_(As^5+^O_4_)_2_(As^5+^O_3_OH)_2_10H_2_O
Locality: Svornost mine, Jáchymov, Krušné Hory Mts, Karlovy Vary, Bohemia, Czech Republic
Source: William W. Pinch
Description: Pale green thin bladed crystals with striations parallel to the elongated direction, associated with quartz
Raman shift (cm-1)	intensity
93.3677	0
96.7425	0.362228
100.117	0.87854
103.492	0.189972
106.867	2.19965
110.242	0.494141
113.617	0.558044
116.992	1.35085
120.366	1.88066
123.741	4.327
127.116	2.37804
130.491	2.69803
133.865	0.987564
137.24	0.168381
140.615	0.392883
143.99	0.43364
147.365	0.095001
150.74	0.066254
154.114	1.38199
157.489	0.234711
160.864	1.06438
164.239	2.32637
167.614	1.63797
170.988	2.57046
174.363	1.79602
177.738	2.78317
181.113	2.04666
184.488	2.99092
187.863	2.76317
191.237	3.23137
194.612	2.12718
197.987	1.2462
201.362	1.2477
204.737	2.04192
208.112	1.71223
211.486	0.927475
214.861	2.80835
218.236	2.92567
221.611	3.10997
224.986	2.32964
228.36	2.16255
231.735	1.55208
235.11	2.55295
238.485	1.90033
241.86	1.9653
245.234	1.45399
248.609	3.18878
251.984	1.23807
255.359	0.455688
258.734	0.6978
262.109	1.71225
265.483	1.09702
268.858	1.11099
272.233	1.24106
275.608	2.25887
278.983	1.74382
282.358	0.945602
285.732	0.894135
289.107	1.19518
292.482	0.828857
295.857	0.593826
299.232	1.28621
302.606	1.25377
305.981	0.283081
309.356	0.275131
312.731	0.043137
316.106	1.23711
319.481	0.075455
322.855	0.674896
326.23	1.22064
329.605	0.510941
332.98	0.712723
336.355	1.24558
339.729	1.40691
343.104	0.745834
346.479	1.30481
349.854	2.20094
353.229	0.849777
356.603	0.722946
359.978	0.320389
363.353	0.338043
366.728	1.90745
370.103	1.89897
373.478	0.914001
376.852	0.548431
380.227	1.82748
383.602	1.68474
386.977	0.77327
390.352	1.69794
393.726	0.020737
397.101	0.676193
400.476	0.511261
403.851	0.050385
407.226	0.493683
410.601	0.829056
413.975	0.859634
417.35	1.3121
420.725	0.319946
424.1	1.54919
427.475	1.76924
430.849	1.2523
434.224	1.04315
437.599	1.42375
440.974	2.73241
444.349	1.93417
447.724	2.04983
451.098	1.2961
454.473	1.86209
457.848	0.875229
461.223	1.50032
464.598	0.978088
467.972	0.972427
471.347	2.26964
474.722	1.38898
478.097	2.13258
481.472	1.11917
484.846	1.57225
488.221	0.718941
491.596	1.98781
494.971	1.28437
498.346	1.80732
501.721	0.651588
505.095	0.721558
508.47	0.512947
511.845	1.56699
515.22	1.70963
518.595	0.148735
521.97	0.151085
525.344	1.67317
528.719	1.09879
532.094	0.71344
535.469	1.67885
538.844	1.00777
542.218	0.989677
545.593	0.642998
548.968	0.879707
552.343	0.027145
555.718	1.67225
559.092	0.028175
562.467	0.12468
565.842	1.03711
569.217	1.42071
572.592	0.692093
575.967	0.134476
579.341	0.261772
582.716	1.4036
586.091	0.633224
589.466	1.17693
592.841	0.872757
596.216	0.373001
599.59	0.457901
602.965	0.76474
606.34	1.61623
609.715	0.685226
613.09	1.07762
616.464	0.381226
619.839	0.914429
623.214	0.022659
626.589	0.375153
629.964	0.531235
633.338	2.16692
636.713	1.15505
640.088	1.28308
643.463	1.37934
646.838	0.659996
650.213	0.881287
653.587	0.391281
656.962	0.589088
660.337	1.16895
663.712	0.23642
667.087	1.09905
670.462	1.72113
673.836	0.939575
677.211	0.831917
680.586	0.955238
683.961	1.07696
687.336	1.08648
690.71	0.611404
694.085	0.969337
697.46	1.28625
700.835	0.138786
704.21	0.058815
707.585	0.630302
710.959	0.109924
714.334	1.06746
717.709	0.831093
721.084	1.05527
724.459	1.04446
727.833	1.2992
731.208	0.879242
734.583	1.03612
737.958	0.356606
741.333	0.775024
744.707	0.389381
748.082	0.840515
751.457	1.08683
754.832	0.480385
758.207	0.207153
761.582	0.12706
764.956	0.128677
768.331	0.996689
771.706	0.149628
775.081	1.1816
778.456	0.337967
781.83	0.191933
785.205	0.279198
788.58	0.701073
791.955	0.497437
795.33	0.693428
798.705	0.63311
802.079	0.045151
805.454	0.496536
808.829	0.268333
812.204	0.92852
815.579	1.25063
818.953	1.19968
822.328	0.136703
825.703	1.90338
829.078	1.30442
832.453	1.96309
835.827	1.62629
839.202	2.77831
842.577	1.8803
845.952	2.98992
849.327	2.22697
852.702	3.88192
856.076	2.69027
859.451	3.15456
862.826	2.52543
866.201	1.73206
869.576	1.72385
872.951	1.98738
876.325	1.119
879.7	1.103
883.075	1.16609
886.45	0.810783
889.825	0.681343
893.199	0.041466
896.574	0.708542
899.949	0.709229
903.324	0.319794
906.699	0.310669
910.073	0.892357
913.448	0.978798
916.823	0.007309
920.198	0.12645
923.573	1.03579
926.948	0.033554
930.322	0.274193
933.697	0.793968
937.072	0.104546
940.447	0.284401
943.822	0.594955
947.197	0.978951
950.571	1.95641
953.946	1.05326
957.321	0.176399
960.696	0.101799
964.071	0.514618
967.445	0.542175
970.82	0.579628
974.195	0.985733
977.57	1.17452
980.945	0.79628
984.319	0.525955
987.694	0.804451
991.069	1.2262
994.444	0.232254
997.819	0.584305
1001.19	0.131042
1004.57	0.721909
1007.94	0.605644
1011.32	2.17957
1014.69	1.01304
1018.07	1.39617
1021.44	0.125
1024.82	0.326839
1028.19	0.846706
1031.57	0.562923
1034.94	0.511234
1038.32	1.07465
1041.69	0.318474
1045.07	0.439953
1048.44	0.003811
1051.82	0.765732
1055.19	1.03617
1058.57	0.823814
1061.94	0.625187
1065.32	0.93784
1068.69	1.21624
1072.07	0.961533
1075.44	0.561962
1078.81	0.963387
1082.19	0.764553
1085.56	0.445747
1088.94	1.11447
1092.31	0.256786
1095.69	0.028873
1099.06	1.24036
1102.44	0.383877
1105.81	0.374897
1109.19	0.814537
1112.56	0.23473
1115.94	0.095478
1119.31	0.419029
1122.69	0.855083
1126.06	1.08182
1129.44	0.817829
1132.81	1.34943
1136.19	0.460407
1139.56	0.285397
1142.94	0.414276
1146.31	0.616482
1149.69	1.15453
1153.06	0.085079
1156.43	0.816818
1159.81	0.346867
1163.18	0.468136
1166.56	1.07247
1169.93	0.783096
1173.31	0.701355
1176.68	1.28399
1180.06	0.491657
1183.43	0.720589
1186.81	0.77293
1190.18	1.05347
1193.56	0.946564
1196.93	0.776707
1200.31	0.041161
1203.68	0.182758
1207.06	0.579277
1210.43	0.54388
1213.81	0.739132
1217.18	1.33918
1220.56	0.557419
1223.93	0.712124
1227.31	0.305592
1230.68	0.523167
1234.06	0.039455
1237.43	0.804611
1240.81	0.10107
1244.18	0.721199
1247.56	0.725941
1250.93	0.42503
1254.31	0.100754
1257.68	0.977299
1261.05	1.60838
1264.43	0.915928
1267.8	0.347237
1271.18	0.925446
1274.55	0.402714
1277.93	0.116108
1281.3	0.310753
