Measurement: Raman, 780 nm, unoriented, Raman Data Processed
Mineral: Oneillite
Rruff sample: R110184
Ideal chemistry: Na_15_Ca_3_Mn^2+^_3_Fe^2+^_3_Zr^4+^_3_Nb^5+^(Si_25_O_73_)(O,OH,H_2_O)_3_(OH,Cl)_2_
Locality: Poudrette quarry, Mont Saint-Hilaire, Quebec, Canada
Source: Donald Doell
Description: Gray or pale-yellow gray massive crystals
Raman shift (cm-1)	intensity
148.493	428.568
151.386	423.703
154.279	434.718
157.171	431.935
160.064	437.856
162.957	441.936
165.85	450.051
168.742	456.641
171.635	461.527
174.528	472.959
177.42	476.474
180.313	486.714
183.206	496.591
186.098	501.067
188.991	505.115
191.884	511.21
194.776	516.428
197.669	519.1
200.562	527.425
203.455	528.064
206.347	537.445
209.24	544.541
212.133	550.562
215.025	565.634
217.918	571.773
220.811	584.84
223.703	589.721
226.596	600.832
229.489	611.233
232.382	626.418
235.274	633.044
238.167	644.648
241.06	649.119
243.952	655.894
246.845	663.829
249.738	671.639
252.631	674.011
255.523	690.014
258.416	691.558
261.309	701.26
264.201	710.773
267.094	726.996
269.987	734.796
272.879	748.203
275.772	759.521
278.665	768.404
281.558	777.731
284.45	786.423
287.343	799.391
290.236	807.848
293.128	819.22
296.021	834.552
298.914	850.37
301.806	885.48
304.699	907.115
307.592	935.585
310.485	960.601
313.377	994.676
316.27	1018.64
319.163	1044.54
322.055	1068.62
324.948	1070.08
327.841	1074.34
330.733	1079.56
333.626	1063.53
336.519	1064.84
339.411	1046.26
342.304	1036.44
345.197	1025.21
348.09	1015.54
350.982	1002.66
353.875	992.692
356.768	991.666
359.66	988.722
362.553	977.333
365.446	976.57
368.339	974.676
371.231	981.339
374.124	979.422
377.017	978.302
379.909	981.628
382.802	981.038
385.695	978.821
388.587	982.049
391.48	972.63
394.373	966.469
397.265	958.678
400.158	951.184
403.051	940.573
405.944	942.341
408.836	940.671
411.729	946.14
414.622	951.994
417.514	962.781
420.407	979.736
423.3	999.226
426.192	1019.17
429.085	1049.52
431.978	1089.53
434.871	1129.56
437.763	1181.96
440.656	1235.38
443.549	1302.41
446.441	1363.21
449.334	1433.61
452.227	1490.73
455.12	1535.96
458.012	1572.79
460.905	1597.58
463.798	1592.1
466.69	1569.17
469.583	1549.3
472.476	1516.11
475.368	1462.97
478.261	1406.35
481.154	1358.15
484.046	1315.95
486.939	1268.21
489.832	1237.31
492.725	1202.75
495.617	1185.26
498.51	1168.62
501.403	1153.92
504.295	1136.46
507.188	1118.07
510.081	1103.5
512.973	1079.15
515.866	1066.42
518.759	1050.73
521.652	1025.57
524.544	1007.87
527.437	985.011
530.33	962.694
533.222	933.427
536.115	911.185
539.008	887.804
541.9	863.274
544.793	840.718
547.686	822.724
550.579	812.514
553.471	800.998
556.364	791.135
559.257	785.045
562.149	783.883
565.042	776.222
567.935	776.484
570.827	770.966
573.72	748.585
576.613	716.397
579.506	695.294
582.398	674.699
585.291	658.914
588.184	653.98
591.076	652.748
593.969	652.632
596.862	651.003
599.755	652.576
602.647	663.975
605.54	668.982
608.433	670.716
611.325	675.741
614.218	677.241
617.111	678.848
620.003	673.676
622.896	673.85
625.789	677.115
628.682	677.869
631.574	683.649
634.467	691.423
637.36	693.292
640.252	695.122
643.145	708.332
646.038	710.487
648.93	716.732
651.823	727.78
654.716	732.543
657.609	746.147
660.501	756.744
663.394	761.021
666.287	772.987
669.179	780.577
672.072	790.692
674.965	797.91
677.857	813.796
680.75	823.826
683.643	832.226
686.535	838.447
689.428	847.572
692.321	854.365
695.214	865.863
698.106	862.681
700.999	857.355
703.892	842.174
706.784	824.036
709.677	808.144
712.57	791.6
715.462	771.047
718.355	765.022
721.248	745.34
724.141	731.612
727.033	718.699
729.926	709.363
732.819	697.327
735.711	681.777
738.604	665.469
741.497	644.596
744.389	617.351
747.282	600.443
750.175	581.654
753.068	560.04
755.96	541.555
758.853	521.487
761.746	505.849
764.638	490.29
767.531	481.222
770.424	469.175
773.317	454.255
776.209	448.248
779.102	438.65
781.995	427.84
784.887	420.716
787.78	413.71
790.673	408.802
793.565	406.336
796.458	397.397
799.351	393.43
802.244	385.71
805.136	384.291
808.029	379.147
810.922	377.171
813.814	371.15
816.707	369.719
819.6	364.955
822.492	362.478
825.385	357.311
828.278	354.709
831.17	345.909
834.063	343.458
836.956	338.979
839.849	336.329
842.741	326.348
845.634	322.865
848.527	322.593
851.419	316.343
854.312	311.87
857.205	306.844
860.097	300.998
862.99	294.345
865.883	288.382
868.776	280.273
871.668	276.863
874.561	273.335
877.454	265.341
880.346	261.474
883.239	260.334
886.132	270.44
889.024	252.327
891.917	249.927
894.81	249.424
897.703	247.751
900.595	248.535
903.488	243.252
906.381	243.778
909.273	239.698
912.166	240.794
915.059	239.905
917.952	240.564
920.844	239.751
923.737	241.043
926.63	239.832
929.522	243.54
932.415	246.542
935.308	247.544
938.2	249.852
941.093	252.916
943.986	253.637
946.879	254.3
949.771	257.308
952.664	258.817
955.557	261.28
958.449	264.795
961.342	268.607
964.235	271.991
967.127	279.97
970.02	279.375
972.913	289.088
975.806	293.596
978.698	301.307
981.591	310.624
984.484	316.563
987.376	326.157
990.269	335.185
993.162	341.054
996.054	349.775
998.947	354.686
1001.84	361.964
1004.73	367.646
1007.62	367.816
1010.52	372.245
1013.41	375.392
1016.3	377.025
1019.2	374.899
1022.09	374.908
1024.98	375.019
1027.87	373.736
1030.77	375.761
1033.66	369.928
1036.55	370.782
1039.44	370.058
1042.34	367.177
1045.23	366.722
1048.12	368.671
1051.02	369.753
1053.91	374.555
1056.8	378.862
1059.69	388.636
1062.59	394.429
1065.48	403.404
1068.37	405.398
1071.27	408.866
1074.16	407.177
1077.05	404.649
1079.94	400.003
1082.84	397.983
1085.73	398.199
1088.62	408.283
1091.51	408.671
1094.41	415.022
1097.3	415.19
1100.19	421.943
1103.08	429.812
1105.98	437.118
1108.87	453.952
1111.76	461.113
1114.65	469.505
1117.55	486.556
1120.44	498.482
1123.33	519.546
1126.23	532.073
1129.12	552.359
1132.01	570.704
1134.9	591.167
1137.8	609.953
1140.69	629.157
1143.58	654.823
1146.47	677.893
1149.37	708.452
1152.26	730.614
1155.15	771.009
1158.05	797.88
1160.94	830.049
1163.83	871.509
1166.72	913.935
1169.62	957.586
1172.51	1005.54
1175.4	1056.25
1178.3	1121.1
1181.19	1189.95
1184.08	1252.48
1186.97	1335.85
1189.87	1417.58
1192.76	1515.24
1195.65	1625.18
1198.54	1739.76
1201.44	1871.41
1204.33	2021.21
1207.22	2182.8
1210.11	2353.9
1213.01	2537.36
1215.9	2728.48
1218.79	2945.61
1221.68	3156.17
1224.58	3382.61
1227.47	3622.05
1230.36	3818.83
1233.26	4043.59
1236.15	4255.9
1239.04	4436.19
1241.93	4600.22
1244.83	4770.52
1247.72	4943.32
1250.61	5036.49
1253.51	5143.27
1256.4	5249.95
1259.29	5333.49
1262.18	5415.34
1265.08	5462.75
1267.97	5478.32
1270.86	5510.41
1273.75	5548.08
1276.65	5577.96
1279.54	5608.25
1282.43	5662.77
1285.32	5722.91
