Measurement: Raman, 780 nm, unoriented, Raman Data Processed
Mineral: Opal
Rruff sample: X080017
Ideal chemistry: SiO_2_<i>n</i>H_2_O
Locality: Synthetic
Source: Gemological Institute of America
Description: Polished Gilson cabachon, 1.58 ct
Raman shift (cm-1)	intensity
116.443	0
119.817	10.3249
123.192	6.2644
126.567	2.78247
129.942	4.01074
133.317	2.19922
136.692	3.53467
140.066	19.811
143.441	34.2683
146.816	32.0525
150.191	33.6309
153.566	34.8345
156.94	39.7349
160.315	38.3042
163.69	33.1943
167.065	32.281
170.44	41.2322
173.815	22.6855
177.189	25.5774
180.564	23.6773
183.939	21.6831
187.314	21.6348
190.689	18.3711
194.064	27.8367
197.438	22.4629
200.813	22.2583
204.188	16.574
207.563	19.6528
210.938	10.9182
214.312	12.3318
217.687	12.3591
221.062	10.1072
224.437	9.4419
227.812	11.0986
231.186	13.3137
234.561	15.8289
237.936	7.52588
241.311	8.91455
244.686	5.72559
248.061	8.72729
251.435	13.9841
254.81	14.4934
258.185	11.3433
261.56	19.2053
264.935	28.3574
268.31	30.1301
271.684	33.1057
275.059	8.58032
278.434	7.0271
281.809	19.5383
285.184	27.7815
288.558	14.9334
291.933	9.646
295.308	4.60449
298.683	11.5923
302.058	12.748
305.433	18.7261
308.807	2.51611
312.182	5.09058
315.557	4.75708
318.932	8.61987
322.307	0.696777
325.682	6.26099
329.056	1.28784
332.431	1.71411
335.806	8.00391
339.181	3.98486
342.556	0.156494
345.93	5.52759
349.305	4.69019
352.68	6.05957
356.055	2.60571
359.43	8.55933
362.805	8.04346
366.179	12.4421
369.554	6.57593
372.929	14.8928
376.304	12.9392
379.679	12.4338
383.053	9.81714
386.428	5.54346
389.803	3.82202
393.178	3.87207
396.553	6.07861
399.928	9.22876
403.302	5.37842
406.677	0.783447
410.052	2.85693
413.427	6.51318
416.802	8.06323
420.176	9.1792
423.551	22.2722
426.926	20.6057
430.301	14.7217
433.676	23.3023
437.05	28.5271
440.425	28.1709
443.8	24.0913
447.175	30.748
450.55	36.6421
453.925	31.4807
457.299	25.5894
460.674	31.9102
464.049	38.9617
467.424	39.78
470.799	35.148
474.173	36.4617
477.548	31.8665
480.923	39.5891
484.298	51.7561
487.673	59.2092
491.048	65.501
494.422	49.7918
497.797	54.4121
501.172	43.3406
504.547	36.1406
507.922	23.3848
511.296	10.1914
514.671	11.8076
518.046	9.50928
521.421	1.36426
524.796	1.11377
528.171	3.01636
531.545	0.385742
534.92	0.775635
538.295	3.02356
541.67	1.79492
545.045	0.009521
548.419	1.47253
551.794	2.00757
555.169	4.32532
558.544	2.76697
561.919	10.7838
565.294	11.3385
568.668	10.6069
572.043	19.885
575.418	15.6276
578.793	15.9847
582.168	16.8442
585.543	17.5066
588.917	21.5172
592.292	27.7106
595.667	24.2539
599.042	29.9601
602.417	24.3611
605.791	28.4969
609.166	16.0371
612.541	17.6581
615.916	11.6997
619.291	15.7244
622.665	7.83191
626.04	11.6794
629.415	12.3656
632.79	7.61279
636.165	14.3868
639.54	16.1477
642.914	17.5637
646.289	14.4746
649.664	14.8914
653.039	12.6573
656.414	13.2878
659.788	14.0712
663.163	6.22253
666.538	8.44214
669.913	5.953
673.288	7.12463
676.663	1.21765
680.037	1.66541
683.412	7.85535
686.787	5.02051
690.162	0.688843
693.537	0.638184
696.912	1.44226
700.286	3.92053
703.661	6.69055
707.036	2.68616
710.411	4.52722
713.786	7.41052
717.16	8.2229
720.535	7.1272
723.91	7.89453
727.285	5.3186
730.66	10.9045
734.034	5.13684
737.409	5.40466
740.784	3.01245
744.159	9.38452
747.534	3.23425
750.909	3.55908
754.283	7.65405
757.658	1.66919
761.033	1.95923
764.408	0.628906
767.783	2.20129
771.158	3.22754
774.532	4.02918
777.907	11.8295
781.282	5.14026
784.657	10.7816
788.032	14.3999
791.406	15.0947
794.781	10.5797
798.156	17.3075
801.531	12.4049
804.906	11.249
808.281	17.4802
811.655	16.0081
815.03	6.85925
818.405	10.7913
821.78	9.42773
825.155	11.4091
828.529	12.6598
831.904	10.1476
835.279	8.24451
838.654	9.33874
842.029	10.8158
845.404	6.22473
848.778	10.521
852.153	8.61169
855.528	7.25842
858.903	6.64575
862.278	4.5404
865.653	1.74341
869.027	0.841675
872.402	0.760376
875.777	4.56811
879.152	1.8468
882.527	2.20483
885.901	5.43726
889.276	2.29688
892.651	1.3186
896.026	1.45398
899.401	0.572632
902.775	0.046875
906.15	3.64172
909.525	2.90027
912.9	0.323853
916.275	4.43543
919.65	3.47852
923.024	3.6947
926.399	5.90832
929.774	7.53113
933.149	4.81824
936.524	5.14331
939.899	5.24707
943.273	6.85425
946.648	8.00501
950.023	7.20728
953.398	9.96643
956.773	4.3678
960.147	2.69373
963.522	9.39734
966.897	5.93237
970.272	3.49731
973.647	4.60791
977.021	5.06763
980.396	2.59522
983.771	4.05444
987.146	3.90698
990.521	4.05103
993.896	2.78601
997.27	6.70679
1000.64	6.37146
1004.02	7.28332
1007.39	0.800903
1010.77	1.80078
1014.14	6.4198
1017.52	0.688843
1020.89	7.54333
1024.27	3.51306
1027.64	8.05774
1031.02	9.65564
1034.39	6.42676
1037.77	10.3011
1041.14	5.83325
1044.52	7.25745
1047.89	5.73047
1051.27	11.1855
1054.64	8.73523
1058.02	8.94312
1061.39	9.46143
1064.77	15.2175
1068.14	9.7146
1071.52	12.313
1074.89	9.68896
1078.27	14.488
1081.64	10.7278
1085.02	12.394
1088.39	12.6282
1091.77	5.1073
1095.14	6.86365
1098.52	7.83862
1101.89	8.29028
1105.27	4.77344
1108.64	3.94165
1112.01	3.90808
1115.39	1.66357
1118.76	0.959106
1122.14	0.403198
1125.51	4.55933
1128.89	0.813721
1132.26	1.05652
1135.64	3.49658
1139.01	4.02283
1142.39	5.24982
1145.76	8.17584
1149.14	11.2034
1152.51	5.00348
1155.89	3.33502
1159.26	9.97418
1162.64	7.8692
1166.01	7.71948
1169.39	11.0045
1172.76	8.93359
1176.14	8.74133
1179.51	8.56775
1182.88	6.79492
1186.26	7.39209
1189.63	6.46472
1193.01	5.9718
1196.38	7.37115
1199.76	6.17633
1203.13	9.84418
1206.51	7.58575
1209.88	8.23108
1213.26	6.03418
1216.63	7.64545
1220.01	6.30713
1223.38	0.73938
1226.76	2.76691
1230.13	4.35791
1233.51	4.69531
1236.88	6.30005
1240.26	4.97064
1243.63	3.47467
1247.01	1.82568
1250.38	2.28949
1253.76	2.14545
1257.13	1.73999
1260.51	0.284851
1263.88	3.13275
1267.26	4.86139
1270.63	5.30182
1274.01	5.37909
1277.38	4.24414
1280.76	7.97699
1284.13	8.40625
