Measurement: Raman, 780 nm, unoriented, Raman Data Processed
Mineral: Orickite
Rruff sample: R070739
Ideal chemistry: CuFeS_2_nH_2_O
Locality: Abundancia vein, Emma Louise Gold mine, El Guanaco, Taltal Province, Antofagasta, Chile
Source: Michael Scott
Description: Dark gray to black metallic massive
Raman shift (cm-1)	intensity
113.738	0
117.113	65.5176
120.488	1.50977
123.862	166.156
127.237	0.449219
130.612	98.7305
133.987	82.2207
137.362	111.828
140.737	198.434
144.111	238.529
147.486	314.018
150.861	369.762
154.236	395.215
157.611	439.938
160.986	331.168
164.36	312.228
167.735	83.0156
171.11	136.279
174.485	275.15
177.859	266.211
181.234	80.4863
184.609	45.3047
187.984	9.00195
191.359	28.25
194.734	81.834
198.108	40.4355
201.483	218.264
204.858	59.1133
208.233	61.9102
211.608	156.426
214.982	261.053
218.357	129.773
221.732	44.0352
225.107	68.4082
228.482	47.8906
231.857	200.481
235.231	210.279
238.606	25.8242
241.981	104.955
245.356	169.365
248.731	188.69
252.106	192.119
255.48	231.088
258.855	228.59
262.23	406.633
265.605	393.106
268.98	1061.13
272.354	566.881
275.729	414.211
279.104	469.875
282.479	373.676
285.854	269.973
289.228	215.803
292.603	19.8281
295.978	56.1387
299.353	7.99219
302.728	121.018
306.103	99.9551
309.477	139.084
312.852	168.32
316.227	334.693
319.602	464.873
322.977	588.814
326.351	698.314
329.726	565.506
333.101	405.289
336.476	297.772
339.851	151.254
343.226	586.066
346.6	125.684
349.975	131
353.35	343.147
356.725	239.496
360.1	206.606
363.474	160.527
366.849	224.461
370.224	25.998
373.599	26.7598
376.974	44.457
380.349	11.25
383.723	47.0781
387.098	29.1426
390.473	120.57
393.848	92.0898
397.223	106.996
400.597	73.959
403.972	14.1582
407.347	135.139
410.722	138.658
414.097	147.775
417.471	95.7539
420.846	142.06
424.221	69.1953
427.596	165.688
430.971	238.393
434.346	205.99
437.72	161.764
441.095	152.06
444.47	234.566
447.845	266.498
451.22	241.654
454.594	206.498
457.969	132.377
461.344	147.352
464.719	97.6191
468.094	177.059
471.469	163.894
474.843	158.815
478.218	115.443
481.593	157.941
484.968	388.227
488.343	105.117
491.717	9.25
495.092	72.8203
498.467	158.168
501.842	267.029
505.217	124.68
508.592	139.129
511.966	184.867
515.341	122.33
518.716	179.309
522.091	25.7676
525.466	86.9961
528.841	148.525
532.215	111.43
535.59	87.5566
538.965	65.0098
542.34	84.8906
545.715	32.8867
549.089	64.3223
552.464	30.6328
555.839	57.0508
559.214	66.7402
562.589	79.8926
565.963	3.09766
569.338	1.03711
572.713	174.412
576.088	115.522
579.463	191.34
582.837	38.1758
586.212	102.613
589.587	54.4902
592.962	153.418
596.337	137.805
599.712	203.004
603.086	124.033
606.461	138.248
609.836	187.109
613.211	209.744
616.586	110.16
619.961	133.398
623.335	98.0254
626.71	181.078
630.085	155.262
633.46	151.367
636.835	79.8887
640.209	171.865
643.584	106.836
646.959	121.977
650.334	14.3184
653.709	30.416
657.083	115.254
660.458	68.7168
663.833	30.3223
667.208	141.113
670.583	279.102
673.958	139.857
677.332	215.406
680.707	73.3984
684.082	33.7383
687.457	207.859
690.832	144.449
694.207	250.918
697.581	85.8418
700.956	167.723
704.331	120.256
707.706	135.264
711.081	245.998
714.455	150.445
717.83	96.3086
721.205	101.481
724.58	47.5586
727.955	214.445
731.33	57.8848
734.704	166.279
738.079	27.834
741.454	127.812
744.829	71.7129
748.204	115.353
751.578	147.988
754.953	79.0352
758.328	188.832
761.703	37.8203
765.078	30.6758
768.452	122.461
771.827	52.5938
775.202	133.438
778.577	93.3613
781.952	159.566
785.327	105.531
788.701	12.2812
792.076	153.676
795.451	60.7773
798.826	148.215
802.201	13.0742
805.575	63.8477
808.95	113.957
812.325	169.949
815.7	242.832
819.075	165.082
822.449	144.977
825.824	215.539
829.199	183.688
832.574	155.125
835.949	259.113
839.323	131.512
842.698	217.797
846.073	142.301
849.448	197.359
852.823	317.293
856.198	55.6641
859.572	94.4883
862.947	127.492
866.322	41.8008
869.697	237.703
873.072	53.7656
876.447	108.957
879.821	117.234
883.196	217.148
886.571	64.2695
889.946	65.6328
893.321	79.8555
896.695	87.207
900.07	17.8125
903.445	114.43
906.82	52.3086
910.195	93.7188
913.569	7.80469
916.944	199.859
920.319	115.039
923.694	11.0469
927.069	61.3086
930.444	33.7656
933.818	34.8906
937.193	81.1797
940.568	253.574
943.943	41.043
947.318	59.793
950.692	278.09
954.067	104.418
957.442	60.293
960.817	50.082
964.192	14.7109
967.567	140.965
970.941	8.94141
974.316	205.227
977.691	58.6992
981.066	124.887
984.441	43.7852
987.816	109.078
991.19	30.6406
994.565	33.8906
997.94	50.0312
1001.32	177.641
1004.69	187.152
1008.06	187.836
1011.44	203.176
1014.81	79.5469
1018.19	265.992
1021.56	169.906
1024.94	105.43
1028.31	305.926
1031.69	394.836
1035.06	268.254
1038.44	420.078
1041.81	369.504
1045.19	410.008
1048.56	354.418
1051.94	345.457
1055.31	248.805
1058.69	279.156
1062.06	369.223
1065.44	343.477
1068.81	318.098
1072.19	343.152
1075.56	410.719
1078.94	269.984
1082.31	266.238
1085.68	254.793
1089.06	167.512
1092.43	193.535
1095.81	213.144
1099.18	155.582
1102.56	309.543
1105.93	57.3398
1109.31	44.7031
1112.68	84.6719
1116.06	211.25
1119.43	88.9258
1122.81	41.875
1126.18	139.602
1129.56	177.863
1132.93	181.586
1136.31	306.699
1139.68	296.856
1143.06	227.527
1146.43	121.828
1149.81	293.738
1153.18	80.1406
1156.56	344.582
1159.93	269.098
1163.31	338.973
1166.68	246.566
1170.06	417.074
1173.43	415.32
1176.81	443.387
1180.18	394.188
1183.56	263.422
1186.93	388.613
1190.3	256.387
1193.68	329
1197.05	382.328
1200.43	231.609
1203.8	296.586
1207.18	310.082
1210.55	63.0195
1213.93	380.402
1217.3	196.473
1220.68	161.789
1224.05	67.9844
1227.43	199.184
1230.8	108.832
1234.18	20.2852
1237.55	17.7617
1240.93	182.918
1244.3	68.3008
1247.68	155.816
1251.05	30.043
1254.43	43.875
1257.8	42.2344
1261.18	211.719
1264.55	114.887
1267.92	16.8516
