Measurement: Raman, 785 nm, unoriented, Raman Data Processed
Mineral: Orthogersdorffite
Rruff sample: R070342
Ideal chemistry: Ni^3+^(AsS)^3-^
Locality: Leichtenberg, Fichtelgebirge, Franconia, Bavaria, Germany
Source: Michael Scott
Description: Dark grey metallic grains embedded in epoxy. Structure refined to determine space group.
Measured chemistry: (Ni_0.94_Fe_0.04_Co_0.02_)_Σ=1_(As_0.99_Sb_0.01_)_Σ=1_S_1.00_
Raman shift (cm-1)	intensity
163.928	0
166.821	49.6442
169.713	23.8143
172.606	83.9142
175.499	98.6881
178.391	95.4584
181.284	14.0627
184.177	10.1621
187.069	45.4385
189.962	38.9298
192.855	3.40619
195.748	57.9712
198.64	20.8737
201.533	37.6425
204.426	69.6027
207.318	70.2072
210.211	74.9735
213.104	74.4012
215.996	94.5803
218.889	69.6519
221.782	54.8743
224.674	29.8893
227.567	18.3757
230.46	17.4045
233.353	1.85727
236.245	30.9074
239.138	9.12384
242.031	7.78101
244.923	3.19171
247.816	4.65933
250.709	10.3273
253.601	22.7147
256.494	9.74381
259.387	17.7701
262.28	8.78937
265.172	4.9902
268.065	17.1234
270.958	15.4563
273.85	22.7249
276.743	18.5115
279.636	29.7376
282.529	35.7279
285.421	20.9091
288.314	30.4461
291.207	30.675
294.099	31.9297
296.992	27.5174
299.885	26.6735
302.777	33.63
305.67	29.4369
308.563	27.7806
311.455	39.3117
314.348	28.8796
317.241	27.4363
320.134	27.3461
323.026	9.12253
325.919	7.45203
328.812	15.7203
331.704	11.3943
334.597	17.3191
337.49	18.6737
340.382	7.76184
343.275	13.5944
346.168	19.6787
349.061	21.7716
351.953	15.8935
354.846	20.7433
357.739	9.27704
360.631	0.618988
363.524	1.30261
366.417	0.820221
369.31	5.0414
372.202	3.60225
375.095	4.86545
377.988	9.29033
380.88	16.6006
383.773	1.92079
386.666	7.52588
389.558	9.08073
392.451	6.36783
395.344	6.88747
398.236	0.042679
401.129	1.84854
404.022	4.50189
406.915	1.04175
409.807	5.53584
412.7	2.8696
415.593	9.91359
418.485	9.31329
421.378	13.3433
424.271	15.9632
427.163	5.75565
430.056	4.23891
432.949	4.72771
435.842	9.34776
438.734	10.9391
441.627	4.56194
444.52	8.21184
447.412	13.0267
450.305	0.863403
453.198	16.8551
456.091	19.5027
458.983	7.93967
461.876	7.87091
464.769	1.9794
467.661	10.6597
470.554	14.6014
473.447	11.1237
476.339	2.34801
479.232	10.6734
482.125	3.82858
485.017	3.33478
487.91	17.1629
490.803	1.53805
493.696	14.3513
496.588	6.631
499.481	3.12462
502.374	10.468
505.266	16.894
508.159	8.93202
511.052	8.1673
513.944	12.9408
516.837	0.474533
519.73	6.56744
522.623	21.2466
525.515	11.3193
528.408	7.46211
531.301	17.8318
534.193	17.1623
537.086	1.42456
539.979	14.1798
542.871	18.9919
545.764	3.66843
548.657	13.1969
551.55	2.92142
554.442	6.42218
557.335	18.0055
560.228	6.25888
563.12	10.4237
566.013	14.6422
568.906	24.3201
571.798	15.9642
574.691	5.05626
577.584	9.7932
580.477	15.3429
583.369	11.4313
586.262	12.781
589.155	12.9337
592.047	6.64734
594.94	11.5398
597.833	0.809555
600.726	15.4055
603.618	16.9768
606.511	5.69045
609.404	11.9157
612.296	20.2295
615.189	9.00476
618.082	9.54218
620.974	6.81104
623.867	17.8656
626.76	18.368
629.653	12.6227
632.545	8.90781
635.438	14.2666
638.331	8.60556
641.223	6.38882
644.116	11.7019
647.009	13.6974
649.901	8.26747
652.794	14.4419
655.687	17.3497
658.58	11.4007
661.472	20.2671
664.365	10.7387
667.258	4.66223
670.15	0.342285
673.043	14.2821
675.936	8.69324
678.828	18.7273
681.721	15.1799
684.614	23.2253
687.506	8.55785
690.399	18.8634
693.292	9.06299
696.185	19.0175
699.077	20.1686
701.97	9.47171
704.863	24.6152
707.755	19.3164
710.648	9.58571
713.541	3.38223
716.433	31.1356
719.326	16.7083
722.219	7.69571
725.112	15.7567
728.004	7.13037
730.897	12.831
733.79	11.9453
736.682	0.818512
739.575	7.4319
742.468	14.0003
745.361	14.1534
748.253	10.7926
751.146	7.35072
754.039	2.84518
756.931	17.3542
759.824	6.19141
762.717	7.00716
765.609	9.57201
768.502	3.3589
771.395	11.1886
774.288	12.2401
777.18	9.23039
780.073	21.4773
782.966	8.09514
785.858	12.3838
788.751	5.68301
791.644	6.57738
794.536	3.56848
797.429	2.86508
800.322	9.61037
803.215	10.6402
806.107	1.95931
809	2.86421
811.893	2.95625
814.785	1.78088
817.678	6.98663
820.571	15.586
823.463	6.41596
826.356	8.86558
829.249	16.8529
832.141	2.09431
835.034	17.9167
837.927	10.336
840.82	21.8346
843.712	4.75604
846.605	9.3497
849.498	10.8992
852.39	17.7332
855.283	12.4304
858.176	23.1651
861.068	12.5779
863.961	12.4869
866.854	3.76749
869.747	13.2558
872.639	12.9069
875.532	14.2275
878.425	9.81056
881.317	12.7821
884.21	9.0787
887.103	15.7391
889.995	14.5453
892.888	4.57492
895.781	7.97568
898.674	13.855
901.566	14.6609
904.459	9.92531
907.352	2.6004
910.244	11.4614
913.137	4.32211
916.03	19.0108
918.923	7.83037
921.815	5.86957
924.708	6.55218
927.601	10.3192
930.493	11.2291
933.386	4.27586
936.279	6.873
939.171	10.5242
942.064	28.9495
944.957	15.6121
947.85	0.039261
950.742	3.73392
953.635	11.4578
956.528	10.6774
959.42	13.7278
962.313	22.7005
965.206	13.3705
968.098	18.3994
970.991	0.721008
973.884	0.686478
976.777	8.45062
979.669	1.34528
982.562	20.9841
985.455	15.3425
988.347	6.11104
991.24	13.5245
994.133	10.2089
997.025	13.3705
999.918	5.38812
1002.81	10.9911
1005.7	12.652
1008.6	17.8144
1011.49	18.2209
1014.38	9.30263
1017.27	0.863235
1020.17	10.2392
1023.06	7.60461
1025.95	15.9387
1028.85	19.0118
1031.74	8.27091
1034.63	26.2773
1037.52	7.38121
1040.42	17.2931
1043.31	1.95828
1046.2	4.6208
1049.09	11.8342
1051.99	10.885
1054.88	19.4545
1057.77	1.54987
1060.66	15.53
1063.56	14.65
1066.45	7.14699
1069.34	3.86244
1072.24	25.3801
1075.13	4.01267
1078.02	9.62376
1080.91	11.9087
1083.81	17.4353
1086.7	7.66144
1089.59	13.6446
1092.48	12.2612
1095.38	14.8475
1098.27	13.5022
1101.16	17.0035
1104.06	26.0277
1106.95	9.94673
1109.84	6.99756
1112.73	0.999817
1115.63	13.0786
1118.52	14.6853
1121.41	3.91238
1124.3	6.31567
1127.2	6.49974
1130.09	7.59871
1132.98	0.977951
1135.88	5.41232
1138.77	10.5929
1141.66	8.94231
1144.55	15.9496
1147.45	12.8602
1150.34	5.68327
1153.23	18.1127
1156.12	12.514
1159.02	1.32518
1161.91	20.4124
1164.8	8.5966
1167.69	16.5136
1170.59	20.8555
1173.48	17.266
1176.37	14.587
1179.27	7.91289
1182.16	4.82404
1185.05	17.3034
1187.94	17.4704
1190.84	6.30736
1193.73	14.6911
1196.62	12.9533
1199.51	2.54286
1202.41	9.31799
1205.3	8.69412
1208.19	9.77399
1211.09	21.4457
1213.98	0.233536
1216.87	10.8609
1219.76	1.86314
1222.66	15.2503
1225.55	10.5641
1228.44	7.02655
1231.33	0.017059
