Measurement: Raman, 780 nm, unoriented, Raman Data Processed
Mineral: Orthoserpierite
Rruff sample: R050292
Ideal chemistry: CaCu^2+^_4_(S^6+^O_4_)_2_(OH)_6_3H_2_O
Locality: Platosa mine, Bermijillo, Durango, Mexico
Source: Peter Megaw
Description: Turquoise-blue bladed crystals
Measured chemistry: Ca_1.00_(Cu_3.19_Zn_0.81_)_Σ=4_(S_1.00_O_4_)_2_(OH)_6_·3H_2_O
Raman shift (cm-1)	intensity
145.556	0
148.449	0.798202
151.342	0.918643
154.234	0.760285
157.127	1.2735
160.02	0.694465
162.912	1.29348
165.805	0.400924
168.698	0.863102
171.591	0.634806
174.483	0.157301
177.376	0.319007
180.269	0.688971
183.161	0.637011
186.054	0.87527
188.947	0.320503
191.839	1.36329
194.732	1.34739
197.625	0.860384
200.518	0.773714
203.41	0.453951
206.303	0.652979
209.196	0.514988
212.088	0.873626
214.981	0.787629
217.874	0.525724
220.766	0.986202
223.659	1.32912
226.552	0.766362
229.445	1.7863
232.337	1.69915
235.23	1.91875
238.123	1.53279
241.015	1.97881
243.908	2.33836
246.801	1.47307
249.693	1.02601
252.586	1.39715
255.479	1.45905
258.372	0.812572
261.264	0.917846
264.157	0.86973
267.05	1.88806
269.942	0.890896
272.835	0.866967
275.728	1.04594
278.62	1.06173
281.513	0.067305
284.406	0.210282
287.298	0.39282
290.191	0.65326
293.084	0.299595
295.977	0.396774
298.869	0.776369
301.762	0.052574
304.655	0.910827
307.547	1.18449
310.44	1.08776
313.333	0.32006
316.226	1.24722
319.118	0.053623
322.011	0.341567
324.904	0.96529
327.796	1.12439
330.689	0.690759
333.582	0.128869
336.474	0.329899
339.367	0.627659
342.26	0.682739
345.152	1.00944
348.045	0.19342
350.938	1.08366
353.831	0.35691
356.723	0.51851
359.616	0.100043
362.509	0.783552
365.401	0.342766
368.294	0.17505
371.187	0.262949
374.079	0.220942
376.972	0.054354
379.865	0.359096
382.758	0.432755
385.65	0.980031
388.543	0.169764
391.436	0.884883
394.328	0.279509
397.221	0.645265
400.114	1.10648
403.007	1.0891
405.899	1.17691
408.792	1.69749
411.685	1.43255
414.577	1.45906
417.47	1.12709
420.363	1.52345
423.255	1.26316
426.148	1.40926
429.041	1.3379
431.933	0.588818
434.826	0.784869
437.719	0.332861
440.612	0.988494
443.504	0.434224
446.397	0.966403
449.29	1.04553
452.182	1.29016
455.075	0.899448
457.968	1.42075
460.861	0.833248
463.753	1.41168
466.646	1.65666
469.539	1.27297
472.431	1.62794
475.324	1.09366
478.217	1.41464
481.109	1.13416
484.002	1.442
486.895	1.50212
489.788	1.07369
492.68	0.068523
495.573	0.503843
498.466	0.322543
501.358	0.377051
504.251	0.742627
507.144	0.263585
510.036	0.050152
512.929	0.347926
515.822	0.466772
518.715	0.664311
521.607	0.0611
524.5	0.492971
527.393	0.100811
530.285	0.007449
533.178	0.397247
536.071	0.040153
538.963	0.103484
541.856	0.370466
544.749	0.245366
547.641	0.11212
550.534	0.760802
553.427	0.4848
556.32	0.261506
559.212	0.550586
562.105	0.785971
564.998	0.570668
567.89	0.395667
570.783	0.237918
573.676	0.300492
576.568	0.359365
579.461	0.470327
582.354	0.395165
585.247	0.466941
588.139	1.10019
591.032	0.722461
593.925	0.66712
596.817	0.072829
599.71	0.94059
602.603	0.455392
605.495	0.878401
608.388	0.346494
611.281	1.00356
614.174	0.959532
617.066	0.423294
619.959	1.02215
622.852	0.710885
625.744	0.989623
628.637	1.18933
631.53	0.366975
634.423	0.030491
637.315	0.780672
640.208	0.835318
643.101	1.21952
645.993	0.519925
648.886	0.873329
651.779	1.18588
654.671	0.832586
657.564	0.136007
660.457	1.27428
663.35	0.407375
666.242	0.689557
669.135	1.07896
672.028	0.108152
674.92	0.776225
677.813	0.401269
680.706	1.09945
683.598	0.485104
686.491	0.148335
689.384	0.533847
692.277	0.158449
695.169	0.723665
698.062	0.578192
700.955	0.11731
703.847	0.797799
706.74	0.479383
709.633	0.448826
712.525	0.233162
715.418	0.071363
718.311	0.611942
721.203	0.10941
724.096	0.667058
726.989	0.117499
729.881	0.941384
732.774	0.54551
735.667	0.158582
738.56	1.0459
741.452	0.609293
744.345	0.891877
747.238	1.15348
750.13	0.499564
753.023	1.00258
755.916	0.382428
758.808	0.880555
761.701	0.233566
764.594	0.559889
767.487	0.009974
770.379	0.130278
773.272	0.941833
776.165	0.321139
779.057	0.738619
781.95	1.37732
784.843	0.240857
787.736	1.02394
790.628	0.643327
793.521	0.056677
796.414	1.11425
799.306	0.168551
802.199	0.453519
805.092	0.234258
807.984	1.05457
810.877	0.624618
813.77	0.172239
816.663	0.25816
819.555	0.860058
822.448	0.964481
825.341	0.975918
828.233	0.104726
831.126	0.041579
834.019	1.02027
836.911	0.389273
839.804	0.068021
842.697	0.826506
845.59	0.556523
848.482	0.754978
851.375	1.12915
854.268	0.493361
857.16	0.268563
860.053	0.423455
862.946	0.068956
865.838	0.572977
868.731	0.652109
871.624	1.23526
874.516	0.278969
877.409	0.333844
880.302	0.60056
883.195	1.30206
886.087	0.51225
888.98	0.764749
891.873	1.62723
894.765	0.652934
897.658	0.743479
900.551	0.759941
903.443	1.0837
906.336	0.839685
909.229	0.646355
912.122	0.404623
915.014	0.507881
917.907	1.2223
920.8	0.749269
923.692	0.765537
926.585	0.107195
929.478	0.356764
932.37	0.549875
935.263	0.045255
938.156	0.102416
941.049	0.852884
943.941	0.538647
946.834	0.161218
949.727	0.126008
952.619	1.41877
955.512	0.69695
958.405	0.461718
961.298	0.657869
964.19	0.510494
967.083	0.759769
969.976	1.45347
972.868	2.13351
975.761	3.14742
978.654	3.93773
981.546	6.09872
984.439	6.8041
987.332	6.76485
990.225	5.61343
993.117	3.17209
996.01	2.1112
998.903	0.999045
1001.79	0.982616
1004.69	0.847103
1007.58	0.712945
1010.47	0.095487
1013.37	0.596029
1016.26	0.636263
1019.15	0.621426
1022.04	0.391788
1024.94	0.258263
1027.83	0.248492
1030.72	1.46359
1033.62	0.549926
1036.51	0.47977
1039.4	0.106375
1042.29	0.598884
1045.19	0.49029
1048.08	0.832309
1050.97	0.326387
1053.86	0.46452
1056.76	0.145703
1059.65	0.523206
1062.54	0.855463
1065.43	0.459959
1068.33	0.569706
1071.22	0.295029
1074.11	0.428143
1077.01	0.754599
1079.9	0.837322
1082.79	0.34185
1085.68	0.71467
1088.58	0.42965
1091.47	1.32655
1094.36	0.712109
1097.25	0.040898
1100.15	0.997938
1103.04	0.108168
1105.93	0.646776
1108.83	0.528103
1111.72	0.832601
1114.61	0.152612
1117.5	1.50944
1120.4	0.961896
1123.29	0.783743
1126.18	1.28514
1129.07	0.147765
1131.97	1.25629
1134.86	0.852013
1137.75	0.591091
1140.64	0.314928
1143.54	0.066568
1146.43	0.417677
1149.32	0.099414
1152.22	0.782773
1155.11	0.485104
1158	0.646356
1160.89	0.690663
1163.79	0.028795
1166.68	0.667229
1169.57	0.699582
1172.46	0.744193
1175.36	0.065704
1178.25	0.467738
1181.14	0.000369
1184.04	0.702548
1186.93	0.245711
1189.82	0.792517
1192.71	0.721303
1195.61	0.583198
1198.5	0.06095
1201.39	0.756883
1204.28	0.515426
1207.18	0.468049
1210.07	0.004936
1212.96	0.026555
1215.86	0.722094
1218.75	0.789369
1221.64	1.01605
1224.53	0.615595
1227.43	1.1557
1230.32	0.654969
1233.21	0.803075
1236.1	0.571232
1239	0.767096
1241.89	0.72565
1244.78	0.5783
1247.67	0.80558
1250.57	0.524103
1253.46	0.230137
1256.35	0.554584
1259.25	0.985581
1262.14	0.772035
1265.03	0.398876
1267.92	0.848906
1270.82	0.944703
1273.71	0.883359
1276.6	0.781013
1279.49	0.50525
1282.39	0.520807
1285.28	0.003824
