Measurement: Raman, 785 nm, unoriented, Raman Data Processed
Mineral: Orthominasragrite
Rruff sample: R060974
Ideal chemistry: V^4+^O(S^6+^O_4_)5H_2_O
Locality: Temple Mountain, Emery County, Utah, USA
Source: Michael Scott
Description: Light blue grainy crust
Raman shift (cm-1)	intensity
204.452	0
207.345	13.5073
210.238	42.583
213.13	56.3424
216.023	1.29089
218.916	16.1174
221.808	19.6122
224.701	17.5909
227.594	31.2682
230.486	30.303
233.379	13.0349
236.272	43.0258
239.165	61.7891
242.057	32.744
244.95	22.2186
247.843	34.6462
250.735	56.4955
253.628	30.9609
256.521	68.0402
259.413	43.8204
262.306	67.1566
265.199	96.4148
268.091	56.1515
270.984	49.8545
273.877	53.5701
276.769	38.2202
279.662	54.3378
282.555	64.9094
285.448	54.17
288.34	27.8251
291.233	40.652
294.126	27.9419
297.018	11.5406
299.911	34.5138
302.804	54.9446
305.697	52.2812
308.589	76.6261
311.482	41.8475
314.375	34.8457
317.267	31.2163
320.16	14.7513
323.053	9.7887
325.945	3.06152
328.838	64.1184
331.731	85.952
334.623	37.8693
337.516	46.5167
340.409	42.1425
343.302	33.5563
346.194	61.0963
349.087	35.7639
351.98	56.8336
354.872	36.6749
357.765	57.916
360.658	20.2114
363.55	33.2405
366.443	18.1975
369.336	17.4015
372.229	28.701
375.121	34.5582
378.014	25.297
380.907	21.7922
383.799	29.1255
386.692	10.8669
389.585	9.05566
392.478	5.06934
395.37	45.0112
398.263	62.1989
401.156	25.4304
404.048	28.3273
406.941	6.33032
409.834	10.9944
412.726	14.9177
415.619	34.3367
418.512	52.7485
421.404	39.7677
424.297	31.541
427.19	49.2844
430.083	34.4127
432.975	42.5933
435.868	69.7602
438.761	17.8283
441.653	56.6593
444.546	59.1388
447.439	51.1221
450.332	48.2795
453.224	44.843
456.117	25.0289
459.01	23.2342
461.902	42.0471
464.795	16.288
467.688	21.7019
470.58	18.774
473.473	33.2886
476.366	11.6599
479.258	5.58423
482.151	33.4247
485.044	43.5232
487.937	24.9082
490.829	27.6444
493.722	46.3513
496.615	59.7201
499.507	67.4329
502.4	91.2357
505.293	43.9761
508.185	17.0869
511.078	65.5557
513.971	45.7043
516.864	30.8796
519.756	57.6281
522.649	52.1161
525.542	69.6235
528.434	52.0535
531.327	29.8965
534.22	17.8604
537.112	39.6323
540.005	96.0969
542.898	81.344
545.79	67.9153
548.683	92.9703
551.576	75.6278
554.469	78.2633
557.361	70.0579
560.254	59.9126
563.147	73.1814
566.039	6.71655
568.932	8.7854
571.825	44.9624
574.717	30.4121
577.61	39.0375
580.503	25.0018
583.396	60.1434
586.288	74.8398
589.181	45.9244
592.074	18.9902
594.966	17.4801
597.859	37.6741
600.752	46.2246
603.644	49.1438
606.537	72.6318
609.43	63.2842
612.323	71.332
615.215	55.5654
618.108	77.1157
621.001	39.7703
623.893	28.8852
626.786	52.4987
629.679	7.35229
632.571	47.1934
635.464	48.8502
638.357	54.1399
641.25	42.1235
644.142	59.5942
647.035	13.3774
649.928	40.5378
652.82	56.9956
655.713	19.5859
658.606	33.8273
661.498	48.9423
664.391	42.9283
667.284	8.24365
670.177	10.927
673.069	35.5486
675.962	31.9191
678.855	85.5424
681.747	14.7229
684.64	37.8585
687.533	27.1676
690.425	19.4586
693.318	1.06262
696.211	22.0172
699.104	66.5057
701.996	42.1836
704.889	33.2471
707.782	7.42358
710.674	33.2866
713.567	26.504
716.46	44.4625
719.352	48.5576
722.245	60.3762
725.138	46.0918
728.03	23.7384
730.923	41.7032
733.816	39.0742
736.709	24.4321
739.601	73.087
742.494	40.8156
745.387	19.6002
748.279	46.2273
751.172	68.0631
754.065	61.6656
756.957	45.0812
759.85	25.2864
762.743	66.8779
765.636	59.9724
768.528	10.5055
771.421	34.7299
774.314	23.1716
777.206	44.5657
780.099	76.7242
782.992	71.9022
785.885	32.6974
788.777	30.1149
791.67	65.5226
794.563	58.8345
797.455	47.3193
800.348	17.1958
803.241	0.289185
806.133	14.2967
809.026	45.0795
811.919	101.154
814.812	57.3866
817.704	56.2775
820.597	62.4143
823.49	60.3412
826.382	5.41931
829.275	34.5693
832.168	57.3023
835.06	25.5569
837.953	11.5643
840.846	36.2346
843.738	75.4727
846.631	50.602
849.524	42.7998
852.417	69.876
855.309	26.9233
858.202	9.26306
861.095	34.8926
863.987	9.67602
866.88	48.703
869.773	25.661
872.665	4.71423
875.558	34.8293
878.451	15.9729
881.343	41.8989
884.236	21.6444
887.129	8.86438
890.022	0.180786
892.914	59.5411
895.807	53.8097
898.7	35.0458
901.592	50.1333
904.485	59.2891
907.378	91.1735
910.27	43.6515
913.163	31.5205
916.056	35.3656
918.949	0.510254
921.841	26.6481
924.734	57.2875
927.627	35.2404
930.519	6.47571
933.412	22.8226
936.305	69.8516
939.197	50.7997
942.09	10.6558
944.983	45.641
947.875	7.69958
950.768	64.6837
953.661	20.0557
956.554	64.9995
959.446	55.1359
962.339	9.19409
965.232	61.7719
968.125	84.2867
971.017	57.1309
973.91	96.1775
976.803	110.008
979.695	126.928
982.588	118.76
985.481	144.227
988.373	134.402
991.266	61.754
994.159	73.4326
997.052	110.444
999.944	110.367
1002.84	101.463
1005.73	100.295
1008.62	55.5732
1011.51	51.2158
1014.41	63.6288
1017.3	67.5685
1020.19	67.3694
1023.09	4.24231
1025.98	9.47034
1028.87	6.09094
1031.76	84.6284
1034.66	41.3091
1037.55	35.8372
1040.44	18.5596
1043.34	52.114
1046.23	55.9406
1049.12	16.1011
1052.01	27.4268
1054.9	53.248
1057.8	6.48877
1060.69	45.5638
1063.58	29.1699
1066.48	51.4589
1069.37	10.4947
1072.26	2.87793
1075.15	47.5066
1078.05	4.02441
1080.94	49.1511
1083.83	60.2421
1086.72	40.9215
1089.62	34.3231
1092.51	16.9735
1095.4	34.9185
1098.3	27.457
1101.19	44.7825
1104.08	58.017
1106.97	28.2398
1109.87	13.8473
1112.76	13.6138
1115.65	32.1592
1118.55	54.7744
1121.44	33.8408
1124.33	69.1003
1127.22	17.9379
1130.12	40.3781
1133.01	12.9083
1135.9	22.1014
1138.79	27.6499
1141.69	4.85315
1144.58	42.9242
1147.47	21.1953
1150.37	32.2991
1153.26	48.241
1156.15	29.9999
1159.04	2.17737
1161.93	22.7236
1164.83	67.9425
1167.72	37.3561
1170.61	42.1174
1173.51	40.4622
1176.4	64.5685
1179.29	44.5565
1182.18	73.1625
1185.08	54.418
1187.97	23.6643
1190.86	26.0947
1193.76	51.1162
1196.65	81.652
1199.54	86.0915
1202.43	28.6914
1205.33	18.1024
1208.22	23.4428
1211.11	34.6848
1214	56.2073
1216.9	72.7363
1219.79	89.3522
1222.68	75.0142
1225.58	78.2845
1228.47	71.1285
1231.36	58.1724
1234.25	51.749
1237.14	1.0387
1240.04	13.4646
1242.93	100.585
1245.82	60.2965
1248.72	23.5864
1251.61	30.2935
1254.5	33.5282
1257.39	42.6191
1260.29	41.3414
1263.18	51.4497
1266.07	49.6639
1268.96	22.7209
1271.86	0
