Measurement: Raman, 532 nm, unoriented, Raman Data Processed
Mineral: Orthogersdorffite
Rruff sample: R070342
Ideal chemistry: Ni^3+^(AsS)^3-^
Locality: Leichtenberg, Fichtelgebirge, Franconia, Bavaria, Germany
Source: Michael Scott
Description: Dark grey metallic grains embedded in epoxy. Structure refined to determine space group.
Measured chemistry: (Ni_0.94_Fe_0.04_Co_0.02_)_Σ=1_(As_0.99_Sb_0.01_)_Σ=1_S_1.00_
Raman shift (cm-1)	intensity
138.091	0
141.466	21.8543
144.841	41.925
148.215	2.18454
151.59	28.8503
154.965	84.8106
158.34	59.0563
161.715	67.1439
165.09	65.4179
168.464	57.8752
171.839	79.5149
175.214	91.7631
178.589	45.1325
181.964	36.6913
185.339	44.2856
188.713	76.132
192.088	16.7715
195.463	53.3538
198.838	86.2463
202.213	146.981
205.587	175.978
208.962	215.952
212.337	223.901
215.712	266.576
219.087	210.677
222.462	160.252
225.836	105.715
229.211	75.254
232.586	57.6444
235.961	42.9709
239.336	19.3406
242.71	42.805
246.085	16.308
249.46	7.40869
252.835	7.21014
256.21	5.99878
259.584	2.83874
262.959	0.661865
266.334	5.76849
269.709	2.14008
273.084	4.51984
276.459	0.710083
279.833	28.4739
283.208	42.1585
286.583	36.276
289.958	53.9542
293.333	38.3785
296.707	46.3788
300.082	29.7739
303.457	50.7299
306.832	60.8332
310.207	72.6281
313.582	101.434
316.956	116.641
320.331	164.052
323.706	146.561
327.081	118.149
330.456	82.4271
333.83	78.8362
337.205	57.45
340.58	53.3641
343.955	66.8673
347.33	45.0466
350.705	24.7545
354.079	34.138
357.454	31.5527
360.829	29.6637
364.204	22.8281
367.579	9.32696
370.954	10.3931
374.328	28.1451
377.703	15.9699
381.078	17.0073
384.453	13.0973
387.828	7.65552
391.202	5.55017
394.577	9.17932
397.952	16.7652
401.327	7.38989
404.702	9.46899
408.077	10.4807
411.451	16.2435
414.826	0.634583
418.201	20.6736
421.576	12.3931
424.951	31.6351
428.325	22.6939
431.7	14.5202
435.075	12.8938
438.45	20.5535
441.825	34.6252
445.2	21.3218
448.574	26.0814
451.949	26.3749
455.324	14.7074
458.699	28.7898
462.074	36.6512
465.448	12.8895
468.823	10.8353
472.198	20.736
475.573	34.9347
478.948	15.6295
482.322	25.8407
485.697	31.9321
489.072	27.8635
492.447	25.5145
495.822	16.1184
499.197	20.0454
502.571	6.04663
505.946	22.8708
509.321	15.6658
512.696	37.0461
516.071	13.5352
519.446	7.75665
522.82	2.12164
526.195	7.03558
529.57	25.0993
532.945	37.5718
536.32	7.17657
539.694	15.528
543.069	14.678
546.444	22.1639
549.819	32.5207
553.194	15.1292
556.568	7.25134
559.943	17.8046
563.318	6.4931
566.693	11.5247
570.068	4.29779
573.443	15.9367
576.817	22.9472
580.192	8.6991
583.567	31.7528
586.942	23.9686
590.317	13.8408
593.692	5.14716
597.066	30.4952
600.441	6.71564
603.816	5.30987
607.191	3.85931
610.566	20.6701
613.94	16.0843
617.315	8.05634
620.69	25.412
624.065	14.7675
627.44	10.8186
630.814	7.05548
634.189	25.5111
637.564	7.49207
640.939	12.3847
644.314	32.6189
647.689	9.12006
651.063	30.1939
654.438	19.4264
657.813	41.1097
661.188	23.0642
664.563	9.15027
667.938	30.2131
671.312	27.7477
674.687	3.46368
678.062	26.4187
681.437	17.6333
684.812	18.8945
688.186	12.2174
691.561	12.8126
694.936	2.23364
698.311	17.7895
701.686	14.5199
705.061	18.3604
708.435	19.4388
711.81	21.0626
715.185	13.0254
718.56	19.8041
721.935	22.1583
725.309	4.63825
728.684	26.5035
732.059	25.2894
735.434	25.8035
738.809	29.2238
742.183	11.6876
745.558	1.10065
748.933	10.0715
752.308	18.7777
755.683	24.5886
759.058	8.30127
762.432	17.3741
765.807	34.7683
769.182	13.2793
772.557	26.6921
775.932	18.7955
779.307	10.669
782.681	21.1042
786.056	4.10449
789.431	10.8948
792.806	27.3209
796.181	13.9554
799.555	4.05853
802.93	14.045
806.305	31.6966
809.68	1.54401
813.055	3.79071
816.429	8.88464
819.804	17.3406
823.179	14.129
826.554	0.918884
829.929	15.5002
833.304	16.4772
836.678	13.2956
840.053	3.9386
843.428	10.1843
846.803	11.1938
850.178	1.13214
853.553	15.2488
856.927	11.5387
860.302	3.6524
863.677	18.3943
867.052	38.1032
870.427	2.94287
873.801	23.6498
877.176	5.14789
880.551	38.1409
883.926	14.1799
887.301	1.95001
890.676	24.2304
894.05	18.0663
897.425	2.73889
900.8	44.7828
904.175	2.51178
907.55	21.2822
910.924	8.32916
914.299	25.6252
917.674	20.8462
921.049	18.1911
924.424	3.77429
927.798	38.9808
931.173	33.2894
934.548	14.2252
937.923	4.09039
941.298	22.4664
944.673	26.7688
948.047	5.52435
951.422	38.0968
954.797	19.9048
958.172	10.1683
961.547	28.2073
964.922	12.343
968.296	6.05963
971.671	5.51117
975.046	14.5767
978.421	29.6593
981.796	13.2353
985.17	11.2549
988.545	23.2208
991.92	24.6738
995.295	4.27832
998.67	12.2079
1002.04	4.57513
1005.42	19.1759
1008.79	11.3008
1012.17	13.8038
1015.54	35.1315
1018.92	10.5172
1022.29	30.9733
1025.67	38.3204
1029.04	18.9907
1032.42	26.2673
1035.79	27.0808
1039.17	26.744
1042.54	42.1327
1045.92	28.7856
1049.29	14.6316
1052.67	14.3962
1056.04	8.99854
1059.42	28.8564
1062.79	1.5423
1066.17	29.1373
1069.54	37.0494
1072.92	31.4574
1076.29	50.0136
1079.66	31.7264
1083.04	30.3379
1086.41	19.4601
1089.79	7.15198
1093.16	51.1172
1096.54	3.13922
1099.91	30.9333
1103.29	37.1682
1106.66	39.9311
1110.04	2.88867
1113.41	24.0703
1116.79	17.9643
1120.16	36.6033
1123.54	11.4112
1126.91	31.1914
1130.29	30.3221
1133.66	27.4161
1137.04	27.2418
1140.41	18.7271
1143.79	37.1281
1147.16	39.8911
1150.54	42.0276
1153.91	22.3585
1157.29	8.45404
1160.66	31.1125
1164.04	5.02814
1167.41	22.635
1170.79	14.6317
1174.16	17.3868
1177.54	38.073
1180.91	16.9785
1184.29	22.3854
1187.66	14.1339
1191.03	29.2213
1194.41	2.31946
1197.78	15.3285
1201.16	6.7088
1204.53	16.6771
1207.91	20.8918
1211.28	26.3753
1214.66	3.34827
1218.03	32.1504
1221.41	37.7039
1224.78	20.5919
1228.16	14.0687
1231.53	36.4129
1234.91	31.6525
1238.28	28.1868
1241.66	14.1567
1245.03	37.4659
1248.41	30.3566
1251.78	33.5457
1255.16	37.6918
1258.53	46.3465
1261.91	19.1888
1265.28	11.4304
1268.65	28.6704
1272.03	28.4122
1275.4	31.2003
1278.78	26.6446
1282.15	7.05707
1285.53	7.71411
1288.9	34.7977
1292.28	1.53485
