Measurement: Raman, 785 nm, unoriented, Raman Data Processed
Mineral: Owyheeite
Rruff sample: R060396
Ideal chemistry: Ag^1+^_3_Pb^2+^_10_Sb^3+^_11_S^2-^_28_
Locality: Banner mine, Boise County, Idaho, USA
Source: Michael Scott
Description: Mass of black hairs on quartz
Raman shift (cm-1)	intensity
162.507	0
165.4	1.01
168.293	113.798
171.185	214.594
174.078	153.96
176.971	150.567
179.863	133.622
182.756	137.758
185.649	151.395
188.542	209.433
191.434	283.181
194.327	309.858
197.22	475.665
200.112	517.406
203.005	608.801
205.898	656.995
208.79	644.962
211.683	594.564
214.576	691.717
217.469	692.399
220.361	802.222
223.254	872.789
226.147	931.382
229.039	954.821
231.932	1060.62
234.825	1026.01
237.717	1037.15
240.61	1055.35
243.503	1082.33
246.396	1069.71
249.288	1112.61
252.181	1134.22
255.074	1163.81
257.966	1242.63
260.859	1393.51
263.752	1186.16
266.645	1086.05
269.537	938.535
272.43	675.678
275.323	568.78
278.215	1011.89
281.108	225.214
284.001	194.831
286.893	110.448
289.786	21.694
292.679	52.994
295.572	24.068
298.464	24.031
301.357	25.929
304.25	162.706
307.142	221.427
310.035	374.874
312.928	530.417
315.82	649.823
318.713	740.678
321.606	626.814
324.499	470.663
327.391	471.344
330.284	438.944
333.177	426.122
336.069	449.238
338.962	536.75
341.855	552.262
344.747	525.278
347.64	321.328
350.533	197.435
353.426	104.948
356.318	40.445
359.211	25.889
362.104	9.109
364.996	21.138
367.889	48.752
370.782	25.953
373.674	71.89
376.567	34.894
379.46	72.867
382.353	0.108
385.245	30.008
388.138	21.066
391.031	24.076
393.923	41.603
396.816	54.218
399.709	99.403
402.601	83.189
405.494	37.547
408.387	51.464
411.28	68.154
414.172	81.762
417.065	63.212
419.958	68.547
422.85	69.948
425.743	67.511
428.636	66.479
431.528	55.833
434.421	54.407
437.314	85.881
440.207	56.759
443.099	87.552
445.992	135.974
448.885	121.099
451.777	170.799
454.67	168.157
457.563	318.099
460.455	482.444
463.348	686.122
466.241	691.437
469.134	371.548
472.026	233.495
474.919	176.882
477.812	112.535
480.704	92.215
483.597	109.799
486.49	81.208
489.382	78.199
492.275	61.01
495.168	87.24
498.06	68.721
500.953	57.276
503.846	29.982
506.739	52.88
509.631	64.392
512.524	31.882
515.417	34.349
518.309	39.63
521.202	35.76
524.095	40.838
526.987	15.912
529.88	23.112
532.773	16.704
535.666	32.574
538.558	2.493
541.451	46.534
544.344	22.658
547.237	24.699
550.129	22.765
553.022	38.167
555.915	36.47
558.807	28.195
561.7	41.629
564.593	70.685
567.485	8.059
570.378	4.13
573.271	34.431
576.164	11.974
579.056	32.801
581.949	45.838
584.842	36.513
587.734	55.19
590.627	68.714
593.52	13.739
596.412	51.257
599.305	1.423
602.198	55.354
605.091	4.364
607.983	32.681
610.876	65.777
613.769	68.886
616.661	68.045
619.554	41.279
622.447	83.185
625.339	42.022
628.232	20.744
631.125	74.917
634.018	51.605
636.91	93.33
639.803	89.687
642.696	40.19
645.588	67.561
648.481	71.722
651.374	43.874
654.266	45.108
657.159	7.182
660.052	34.138
662.945	76.085
665.837	47.659
668.73	6.519
671.623	81.98
674.515	24.356
677.408	25.269
680.301	29.837
683.193	36.327
686.086	49.658
688.979	90.247
691.872	42.65
694.764	18.058
697.657	33.987
700.55	48.638
703.442	87.299
706.335	16.35
709.228	72.163
712.12	18.168
715.013	40.207
717.906	29.273
720.799	36.32
723.691	52.774
726.584	17.296
729.477	4.675
732.369	31.383
735.262	44.791
738.155	49.67
741.047	30.815
743.94	10.727
746.833	50.912
749.726	44.931
752.618	45.339
755.511	29.068
758.404	45.279
761.296	28.639
764.189	53.163
767.082	83.261
769.974	54.869
772.867	69.115
775.76	37.34
778.653	15.496
781.545	89.753
784.438	37.54
787.331	79.291
790.223	84.358
793.116	81.021
796.009	53.075
798.901	22.358
801.794	30.049
804.687	59.101
807.58	56.323
810.472	65.127
813.365	27.867
816.258	61.247
819.15	32.523
822.043	50.263
824.936	50.407
827.828	64.829
830.721	55.712
833.614	45.287
836.506	81.127
839.399	21.802
842.292	16.433
845.185	34.973
848.077	17.183
850.97	90.644
853.863	30.506
856.755	18.396
859.648	26.635
862.541	41.793
865.433	15.27
868.326	17.967
871.219	29.239
874.112	29.694
877.004	44.282
879.897	47.727
882.79	57.611
885.682	54.847
888.575	10.415
891.468	56.199
894.36	52.905
897.253	24.145
900.146	27.452
903.039	20.326
905.931	7.867
908.824	8.303
911.717	44.896
914.609	60.809
917.502	14.337
920.395	52.647
923.288	49.5
926.18	53.29
929.073	25.735
931.966	25.938
934.858	1.48
937.751	65.766
940.644	73.268
943.536	76.164
946.429	54.84
949.322	0.92
952.215	68.816
955.107	71.78
958	28.965
960.893	37.21
963.785	71.814
966.678	79.339
969.571	32.858
972.464	21.647
975.356	33.24
978.249	29.98
981.142	30.592
984.034	9.485
986.927	17.597
989.82	24.452
992.712	8.359
995.605	19.364
998.498	13.095
1001.39	24.11
1004.28	75.341
1007.18	36.445
1010.07	32.222
1012.96	55.026
1015.85	38.499
1018.75	30.96
1021.64	80.1
1024.53	33.426
1027.42	51.647
1030.32	58.203
1033.21	37.038
1036.1	32.608
1039	32.556
1041.89	18.336
1044.78	64.385
1047.67	31.651
1050.57	0.907
1053.46	77.508
1056.35	37.409
1059.24	51.843
1062.14	18.612
1065.03	32.518
1067.92	23.468
1070.82	16.529
1073.71	56.261
1076.6	28.458
1079.49	68.52
1082.39	46.714
1085.28	41.947
1088.17	38.809
1091.06	43.927
1093.96	17.705
1096.85	40.464
1099.74	16.797
1102.63	28.603
1105.53	33.212
1108.42	22.288
1111.31	63.422
1114.21	39.722
1117.1	43.236
1119.99	25.265
1122.88	14.911
1125.78	62.717
1128.67	45.654
1131.56	11.365
1134.45	22.555
1137.35	58.235
1140.24	47.881
1143.13	43.35
1146.03	13.819
1148.92	61.216
1151.81	10.804
1154.7	31.648
1157.6	1.263
1160.49	45.098
1163.38	38.123
1166.27	48.11
1169.17	44.514
1172.06	44.363
1174.95	58.048
1177.85	42.406
1180.74	20.875
1183.63	51.222
1186.52	56.931
1189.42	8.397
1192.31	33.802
1195.2	56.324
1198.09	55.199
1200.99	9.366
1203.88	28.981
1206.77	17.159
1209.66	38.047
1212.56	22.424
1215.45	7.124
1218.34	48.427
1221.24	37.671
1224.13	51.252
1227.02	69.775
1229.91	75.353
1232.81	43.815
1235.7	38.448
1238.59	33.345
1241.48	82.303
1244.38	84.216
1247.27	38.482
1250.16	29.581
1253.06	9.905
1255.95	29.771
1258.84	66.845
1261.73	66.778
1264.63	89.324
1267.52	86.658
1270.41	4.294
1273.3	29.744
