Measurement: Raman, 785 nm, unoriented, Raman Data Processed
Mineral: Owyheeite
Rruff sample: R070543
Ideal chemistry: Ag^1+^_3_Pb^2+^_10_Sb^3+^_11_S^2-^_28_
Locality: Covada, Colville Indian Reservation, Ferry County, Washington, USA
Source: James Shigley
Description: Aggregate of metallic black acicular crystals associated with quartz
Raman shift (cm-1)	intensity
154.666	0
157.559	25.9785
160.451	121.742
163.344	141.155
166.237	213.726
169.13	171.413
172.022	127.447
174.915	60.824
177.808	33.9365
180.7	92.6868
183.593	110.479
186.486	193.278
189.378	212.45
192.271	307.471
195.164	345.308
198.056	392.695
200.949	444.121
203.842	454.886
206.735	493.352
209.627	607.899
212.52	632.653
215.413	731.564
218.305	745.617
221.198	775.152
224.091	812.155
226.983	929.083
229.876	908.589
232.769	885.933
235.662	973.123
238.554	978.229
241.447	980.567
244.34	1011.28
247.232	1020.97
250.125	962.998
253.018	896.817
255.911	901.646
258.803	836.636
261.696	748.483
264.589	642.185
267.481	561.377
270.374	409.42
273.267	269.742
276.159	186.45
279.052	74.5068
281.945	39.166
284.837	21.4189
287.73	27.3472
290.623	20.5989
293.516	41.687
296.408	52.6809
299.301	91.7795
302.194	215.344
305.086	320.196
307.979	471.097
310.872	569.894
313.764	682.834
316.657	650.948
319.55	572.072
322.442	508.271
325.335	482.11
328.228	441.914
331.121	435.832
334.013	467.234
336.906	451.159
339.799	407.695
342.691	366.727
345.584	242.354
348.477	153.812
351.37	86.0117
354.262	6.10144
357.155	19.0585
360.048	0.522827
362.94	8.12561
365.833	6.25012
368.726	20.5947
371.618	13.6708
374.511	6.21912
377.404	13.5678
380.296	38.3771
383.189	28.3922
386.082	38.3236
388.975	60.3834
391.867	40.8886
394.76	54.9663
397.653	67.3885
400.545	96.6885
403.438	78.1976
406.331	77.93
409.224	92.9981
412.116	82.6294
415.009	85.2906
417.902	92.8133
420.794	93.7122
423.687	114.07
426.58	58.6166
429.472	65.6813
432.365	52.0617
435.258	65.8661
438.151	83.1044
441.043	71.2256
443.936	58.9357
446.829	79.6615
449.721	67.8251
452.614	67.5817
455.507	52.0511
458.399	42.6216
461.292	73.7828
464.185	60.3861
467.077	55.0002
469.97	59.0548
472.863	56.5612
475.756	44.5442
478.648	64.7703
481.541	21.2164
484.434	42.6519
487.326	56.9761
490.219	14.4919
493.112	38.0851
496.005	15.3495
498.897	0.091187
501.79	25.7852
504.683	25.3584
507.575	0.526855
510.468	9.5625
513.361	28.3722
516.253	20.2776
519.146	16.5759
522.039	1.05469
524.932	17.5541
527.824	6.43713
530.717	13.437
533.61	5.36401
536.502	5.43494
539.395	11.4279
542.288	3.62244
545.18	30.5222
548.073	16.0404
550.966	30.7664
553.858	29.8009
556.751	28.1312
559.644	4.94226
562.537	26.4779
565.429	17.3148
568.322	4.17285
571.215	34.4895
574.107	17.2102
577	18.8375
579.893	30.1201
582.785	19.9318
585.678	6.22339
588.571	16.717
591.463	21.605
594.356	33.9956
597.249	2.39734
600.142	8.51843
603.034	24.082
605.927	6.96863
608.82	42.9365
611.712	33.4051
614.605	33.8274
617.498	23.9416
620.39	31.6404
623.283	17.9658
626.176	33.355
629.069	26.7068
631.961	21.9936
634.854	18.5526
637.747	19.8452
640.639	43.8057
643.532	48.9048
646.425	17.6901
649.317	12.2826
652.21	31.6066
655.103	9.59815
657.995	42.5213
660.888	21.6499
663.781	25.0484
666.674	11.5991
669.566	2.35913
672.459	25.9073
675.352	4.58386
678.244	14.0662
681.137	18.3546
684.03	25.3157
686.923	11.9991
689.815	5.25494
692.708	7.59851
695.601	5.31317
698.493	8.42816
701.386	8.14648
704.279	20.5836
707.171	1.93726
710.064	30.4684
712.957	5.99286
715.85	31.6749
718.742	11.0128
721.635	4.27069
724.528	13.1688
727.42	17.8378
730.313	40.6083
733.206	45.3257
736.098	37.5492
738.991	16.1892
741.884	15.9481
744.777	21.7065
747.669	37.4071
750.562	36.4189
753.455	27.7973
756.347	39.4237
759.24	18.5085
762.133	20.4373
765.025	35.6805
767.918	18.8666
770.811	14.2056
773.703	10.3087
776.596	39.8165
779.489	19.1395
782.382	16.3431
785.274	28.3453
788.167	41.0625
791.06	23.1633
793.952	33.3724
796.845	25.7207
799.738	41.4769
802.63	32.9301
805.523	22.9867
808.416	8.58557
811.309	9.51257
814.201	14.8582
817.094	12.784
819.987	0.974243
822.879	14.5745
825.772	11.3733
828.665	35.2441
831.557	12.3024
834.45	14.5389
837.343	31.1719
840.236	4.24383
843.128	17.783
846.021	30.4764
848.914	20.8186
851.806	8.43543
854.699	13.2112
857.592	3.94452
860.484	16.6912
863.377	8.33911
866.27	25.2575
869.163	15.0224
872.055	17.848
874.948	15.0913
877.841	13.6402
880.733	5.37824
883.626	15.5013
886.519	14.0068
889.411	18.2536
892.304	17.8353
895.197	6.30676
898.09	23.537
900.982	22.5513
903.875	8.09808
906.768	17.7091
909.66	30.0917
912.553	33.9754
915.446	24.002
918.338	15.1915
921.231	21.6568
924.124	43.0786
927.016	22.8465
929.909	32.0052
932.802	24.8076
935.695	0.662781
938.587	29.4032
941.48	4.10675
944.373	30.1264
947.265	20.9829
950.158	15.2431
953.051	18.2582
955.943	26.5602
958.836	41.8525
961.729	20.5297
964.622	5.51544
967.514	31.2911
970.407	39.7967
973.3	40.8483
976.192	17.5096
979.085	38.7026
981.978	13.3531
984.87	21.0919
987.763	33.2311
990.656	38.2991
993.549	11.2926
996.441	9.2796
999.334	21.5333
1002.23	5.66223
1005.12	33.2165
1008.01	21.3201
1010.9	1.43469
1013.8	34.2664
1016.69	14.7064
1019.58	10.594
1022.48	14.9267
1025.37	0.065247
1028.26	15.4431
1031.15	20.6976
1034.05	33.3749
1036.94	1.90381
1039.83	11.0626
1042.72	15.438
1045.62	30.0367
1048.51	32.5361
1051.4	23.4283
1054.3	27.103
1057.19	16.5062
1060.08	13.2937
1062.97	8.54114
1065.87	3.30396
1068.76	19.5106
1071.65	11.9357
1074.54	10.3568
1077.44	17.5037
1080.33	22.6027
1083.22	12.1525
1086.12	0.04248
1089.01	29.317
1091.9	8.35846
1094.79	25.2997
1097.69	37.689
1100.58	11.5882
1103.47	30.459
1106.36	25.2352
1109.26	20.7292
1112.15	26.6111
1115.04	14.5706
1117.93	10.0228
1120.83	10.9457
1123.72	22.2284
1126.61	32.1324
1129.51	8.05994
1132.4	5.30383
1135.29	1.74878
1138.18	1.18274
1141.08	9.55286
1143.97	14.1438
1146.86	40.8823
1149.75	0.521545
1152.65	32.4218
1155.54	10.9938
1158.43	19.4666
1161.33	34.6938
1164.22	34.6481
1167.11	15.4893
1170	39.314
1172.9	37.4154
1175.79	16.6008
1178.68	18.6872
1181.57	25.247
1184.47	23.6741
1187.36	11.4894
1190.25	21.257
1193.14	12.0505
1196.04	25.2587
1198.93	35.5012
1201.82	24.9953
1204.72	23.1298
1207.61	22.7263
1210.5	27.6099
1213.39	23.6706
1216.29	17.0398
1219.18	15.168
1222.07	31.7247
1224.96	14.1362
1227.86	7.31415
1230.75	32.9798
1233.64	31.4175
1236.54	3.42267
1239.43	28.7713
1242.32	9.57178
1245.21	13.5278
1248.11	22.5756
1251	12.0987
1253.89	11.4728
1256.78	8.46307
1259.68	13.3277
1262.57	19.6627
1265.46	18.5579
