Measurement: Raman, 780 nm, unoriented, Raman Data Processed
Mineral: Oxy-schorl
Rruff sample: R140339
Ideal chemistry: Na(Fe^2+^_2_Al)Al_6_Si_6_O_18_(BO_3_)_3_(OH)_3_O
Locality: PÅ™ibyslavice, Bohemia, Czech Republic
Source: Bob Jenkins
Description: Black grains embedded in quartz and orthoclase
Raman shift (cm-1)	intensity
147.968	0
150.86	2.07361
153.753	0.30249
156.646	3.78284
159.538	14.0008
162.431	24.6163
165.324	30.8658
168.216	39.154
171.109	51.1132
174.002	51.4898
176.894	49.5258
179.787	47.4492
182.68	38.8911
185.573	28.3141
188.465	16.7106
191.358	16.6272
194.251	10.0674
197.143	14.0684
200.036	11.8665
202.929	13.4662
205.821	16.0678
208.714	16.3678
211.607	17.9235
214.5	13.1775
217.392	14.5286
220.285	13.6877
223.178	6.7251
226.07	1.09619
228.963	1.88513
231.856	4.40601
234.749	0.575195
237.641	1.21301
240.534	3.30908
243.427	4.43127
246.319	10.4921
249.212	13.0596
252.105	16.6471
254.997	15.8208
257.89	21.3422
260.783	24.6291
263.675	24.2433
266.568	26.0503
269.461	33.5936
272.354	37.0082
275.246	36.7707
278.139	37.0153
281.032	35.4318
283.924	34.176
286.817	24.2559
289.71	17.3402
292.602	11.1437
295.495	5.44812
298.388	3.36536
301.281	4.29724
304.173	1.15064
307.066	1.84033
309.959	1.00195
312.851	2.66821
315.744	7.09949
318.637	9.52258
321.529	9.86499
324.422	11.7047
327.315	14.0477
330.207	19.674
333.1	23.9746
335.993	30.3706
338.886	35.2421
341.778	43.7091
344.671	37.7926
347.564	43.0542
350.456	42.7662
353.349	43.0008
356.242	45.5179
359.135	47.5043
362.027	55.7922
364.92	60.7843
367.813	67.4669
370.705	67.0526
373.598	64.9959
376.491	60.8289
379.383	52.0096
382.276	43.9747
385.169	35.166
388.062	33.1522
390.954	22.451
393.847	15.9412
396.74	11.1374
399.632	5.83472
402.525	4.63831
405.418	3.85205
408.31	1.25476
411.203	0.912476
414.096	0.275757
416.988	4.13342
419.881	2.20288
422.774	0.928101
425.667	0.651367
428.559	1.54211
431.452	3.06287
434.345	1.09522
437.237	1.73975
440.13	3.67285
443.023	10.2653
445.915	7.79053
448.808	5.87061
451.701	13.6826
454.594	16.9972
457.486	19.2449
460.379	20.6677
463.272	23.4194
466.164	24.9542
469.057	24.6688
471.95	26.8523
474.842	24.5914
477.735	20.6497
480.628	23.1385
483.521	25.3697
486.413	21.7893
489.306	28.7755
492.199	30.1465
495.091	38.0895
497.984	43.4498
500.877	49.1229
503.769	57.3589
506.662	62.3176
509.555	69.0769
512.447	77.4575
515.34	87.1454
518.233	89.5128
521.126	94.8193
524.018	95.4701
526.911	104.124
529.804	102.015
532.696	107.003
535.589	102.692
538.482	102.123
541.375	102.902
544.267	96.2333
547.16	91.3536
550.053	79.9998
552.945	72.4061
555.838	67.1867
558.731	59.2987
561.623	50.1451
564.516	46.1222
567.409	43.467
570.302	34.2985
573.194	29.0016
576.087	25.0289
578.98	21.6226
581.872	14.1942
584.765	9.33313
587.658	1.88318
590.55	2.56867
593.443	1.33862
596.336	2.8808
599.229	3.25757
602.121	1.43158
605.014	0.902466
607.907	3.07288
610.799	0.810181
613.692	0.773132
616.585	1.38611
619.477	4.35162
622.37	8.15802
625.263	14.2922
628.155	14.3379
631.048	14.3787
633.941	16.6342
636.833	15.946
639.726	12.6931
642.619	9.32178
645.512	9.27167
648.404	5.51086
651.297	6.04468
654.19	2.3446
657.082	0.925293
659.975	3.53412
662.868	0.402466
665.76	0.287842
668.653	2.23438
671.546	1.75616
674.439	0.742737
677.331	1.17194
680.224	1.0202
683.117	0.766418
686.009	2.6167
688.902	2.07898
691.795	6.59967
694.688	5.8172
697.58	7.16528
700.473	11.3575
703.366	8.83234
706.258	10.1427
709.151	14.1256
712.044	13.6934
714.936	19.9745
717.829	21.6382
720.722	15.9771
723.614	13.9941
726.507	12.845
729.4	10.7655
732.293	10.5505
735.185	14.9399
738.078	12.5071
740.971	11.6131
743.863	13.6388
746.756	16.7576
749.649	16.2786
752.541	18.9225
755.434	21.7095
758.327	20.4901
761.22	20.6588
764.112	23.2889
767.005	23.606
769.898	26.135
772.79	32.9985
775.683	32.6959
778.576	34.1874
781.468	33.2679
784.361	27.0347
787.254	20.4013
790.146	17.9636
793.039	10.848
795.932	6.6745
798.825	6.75775
801.717	5.29364
804.61	7.49933
807.503	11.5597
810.395	8.03229
813.288	5.32019
816.181	4.72571
819.073	2.56287
821.966	3.37555
824.859	1.98938
827.752	0.485535
830.644	2.35168
833.537	0.259705
836.43	2.0965
839.322	1.01654
842.215	0.758362
845.108	2.323
848	0.110962
850.893	2.47528
853.786	1.64429
856.679	0.560303
859.571	1.24414
862.464	1.44507
865.357	1.09509
868.249	1.01288
871.142	0.962097
874.035	1.39526
876.927	1.89471
879.82	1.59381
882.713	3.4997
885.606	2.11523
888.498	2.83252
891.391	3.01917
894.284	2.65442
897.176	1.42828
900.069	1.24127
902.962	0.665588
905.854	3.47284
908.747	3.22034
911.64	4.62994
914.533	1.68457
917.425	1.88776
920.318	1.23151
923.211	0.259277
926.103	1.93341
928.996	1.35315
931.889	0.150391
934.781	0.762268
937.674	2.01825
940.567	1.13074
943.46	2.08521
946.352	3.86328
949.245	4.56043
952.138	3.82782
955.03	1.22546
957.923	1.9549
960.816	3.96539
963.708	3.75928
966.601	1.82208
969.494	1.98358
972.386	3.14514
975.279	2.08148
978.172	1.0321
981.065	0.434448
983.957	3.8678
986.85	2.9234
989.743	4.92761
992.635	4.27966
995.528	5.16418
998.421	2.86676
1001.31	5.30426
1004.21	4.66284
1007.1	5.14502
1009.99	5.59253
1012.88	5.03619
1015.78	4.29291
1018.67	6.55902
1021.56	7.47595
1024.45	6.57703
1027.35	4.54211
1030.24	3.56744
1033.13	7.57629
1036.03	8.53583
1038.92	10.2589
1041.81	11.2843
1044.7	10.5071
1047.6	8.71039
1050.49	10.5253
1053.38	11.7056
1056.28	7.64581
1059.17	10.55
1062.06	9.14948
1064.95	11.0646
1067.85	6.10583
1070.74	7.21967
1073.63	6.86792
1076.52	4.60199
1079.42	2.94074
1082.31	4.51843
1085.2	3.68408
1088.09	5.34405
1090.99	1.64874
1093.88	2.06403
1096.77	1.42273
1099.66	2.24133
1102.56	3.55188
1105.45	4.75311
1108.34	4.09784
1111.24	4.26361
1114.13	2.92889
1117.02	0.854675
1119.91	1.08392
1122.81	1.85376
1125.7	0.223572
1128.59	0.514954
1131.48	0.914734
1134.38	1.37732
1137.27	0.742615
1140.16	1.07947
1143.06	1.18152
1145.95	0.70636
1148.84	3.54095
1151.73	0.342773
1154.63	3.2749
1157.52	5.29346
1160.41	3.89154
1163.31	5.44879
1166.2	4.37866
1169.09	4.47858
1171.98	6.10388
1174.88	4.8056
1177.77	6.54627
1180.66	5.28052
1183.55	7.24731
1186.45	2.55139
1189.34	2.72443
1192.23	6.99719
1195.12	5.84345
1198.02	5.45319
1200.91	3.61798
1203.8	2.12274
1206.69	3.36597
1209.59	3.52948
1212.48	4.4588
1215.37	2.56012
1218.27	0.269592
1221.16	0.949097
1224.05	1.2926
1226.94	3.16638
1229.84	4.45447
1232.73	3.92554
1235.62	1.93536
1238.52	0.637512
1241.41	1.23444
1244.3	0.18396
1247.19	1.60297
1250.09	1.98737
1252.98	2.17651
1255.87	1.13824
1258.76	2.91284
1261.66	1.72815
1264.55	0.821167
1267.44	3.81226
1270.33	2.75861
1273.23	0.721802
1276.12	1.38074
1279.01	0.115295
1281.9	0.011902
1284.8	0
