Measurement: Raman, 532 nm, unoriented, Raman Data RAW
Mineral: Palladium
Rruff sample: R070339
Ideal chemistry: Pd
Locality: Gongo Soco mine, Quadrilátero Ferrífero, Minas Gerais; Southeast, Brazil
Source: Michael Scott
Description: Light gray metallic grain
Raman shift (cm-1)	intensity
154.001	1427.45
157.376	1453.46
160.75	1440.12
164.125	1450.19
167.5	1472.13
170.875	1512.2
174.25	1500.93
177.625	1512.11
180.999	1515.1
184.374	1519.57
187.749	1529.36
191.124	1561.46
194.499	1545.94
197.874	1563.68
201.248	1582.88
204.623	1611.68
207.998	1611.6
211.373	1649.28
214.748	1623.31
218.122	1672.03
221.497	1640.61
224.872	1677.03
228.247	1683.56
231.622	1706.32
234.996	1707.42
238.371	1744.87
241.746	1736.63
245.121	1753.15
248.496	1762.61
251.871	1768.01
255.245	1792.42
258.62	1786.26
261.995	1793.45
265.37	1799.25
268.745	1786.75
272.12	1849.62
275.494	1850.95
278.869	1862.61
282.244	1867.88
285.619	1889.11
288.994	1901.22
292.368	1904.42
295.743	1955.89
299.118	1931.14
302.493	1975.14
305.868	1974.42
309.243	1985.78
312.617	1957.37
315.992	2010.07
319.367	1999.85
322.742	2033.1
326.117	2032.1
329.491	1996.29
332.866	2009.72
336.241	2017.01
339.616	2004.51
342.991	2025.41
346.365	2067.24
349.74	2059.96
353.115	2081.56
356.49	2069.38
359.865	2076.65
363.24	2081.34
366.614	2087.16
369.989	2083.57
373.364	2077.98
376.739	2098.37
380.114	2107.31
383.488	2152.13
386.863	2114.44
390.238	2126.89
393.613	2128
396.988	2114.14
400.363	2137.62
403.737	2127.18
407.112	2128.81
410.487	2170.18
413.862	2147.71
417.237	2172.16
420.611	2187.88
423.986	2180.18
427.361	2189.9
430.736	2206.07
434.111	2208.38
437.486	2178.45
440.86	2200.94
444.235	2224.99
447.61	2253.23
450.985	2229.81
454.36	2233.58
457.735	2257.67
461.109	2270.2
464.484	2287.83
467.859	2302.41
471.234	2286.14
474.609	2312.75
477.983	2290.42
481.358	2295.7
484.733	2287.69
488.108	2297.33
491.483	2319.89
494.858	2322.54
498.232	2345.9
501.607	2328.73
504.982	2326.44
508.357	2355.9
511.732	2367.79
515.106	2351.04
518.481	2378.08
521.856	2393.43
525.231	2407.66
528.606	2417.16
531.981	2409.18
535.355	2429.88
538.73	2450.91
542.105	2442.25
545.48	2441.16
548.855	2459.7
552.229	2460.32
555.604	2477.66
558.979	2495.15
562.354	2474.79
565.729	2535.78
569.104	2478.55
572.478	2487.69
575.853	2502.66
579.228	2538.56
582.603	2505.21
585.978	2496.05
589.352	2563.08
592.727	2498.6
596.102	2569.92
599.477	2527.53
602.852	2580.32
606.227	2549.21
609.601	2646.88
612.976	2609.64
616.351	2614.64
619.726	2625.26
623.101	2646
626.476	2645.45
629.85	2680.93
633.225	2672.05
636.6	2688.23
639.975	2701.09
643.35	2698.2
646.724	2706.67
650.099	2680.11
653.474	2681.61
656.849	2708.38
660.224	2680.38
663.598	2733.42
666.973	2740.37
670.348	2706.84
673.723	2722.07
677.098	2733.83
680.472	2729.96
683.847	2712.42
687.222	2690.91
690.597	2716.98
693.972	2742.76
697.347	2761.01
700.721	2719.57
704.096	2777.85
707.471	2757.51
710.846	2738.56
714.221	2758.16
717.596	2776.02
720.97	2768.25
724.345	2781.35
727.72	2753.17
731.095	2813.36
734.47	2768.09
737.844	2791.22
741.219	2809.38
744.594	2798.36
747.969	2769.98
751.344	2811.1
754.719	2824.19
758.093	2803.87
761.468	2852.68
764.843	2873.51
768.218	2820.33
771.593	2845.49
774.967	2846.97
778.342	2823.13
781.717	2880.97
785.092	2865.09
788.467	2849.97
791.842	2877.86
795.216	2862.78
798.591	2883.21
801.966	2909.72
805.341	2889.23
808.716	2905.82
812.091	2913.7
815.465	2909.97
818.84	2913.64
822.215	2910.29
825.59	2864.63
828.965	2917
832.339	2878.3
835.714	2938.36
839.089	2890.34
842.464	2972.21
845.839	2977.7
849.213	2951.22
852.588	2954.56
855.963	2982.84
859.338	3000.24
862.713	3010.34
866.087	2979.43
869.462	2985.61
872.837	3001.5
876.212	2993.43
879.587	3039.45
882.962	3020.93
886.337	3025.12
889.711	3052.85
893.086	3027.1
896.461	3056.02
899.836	3026.27
903.211	3034.14
906.585	3066.4
909.96	3064.33
913.335	3035.64
916.71	3068.72
920.085	3066.65
923.46	3092.5
926.834	3057.06
930.209	3092.3
933.584	3080.95
936.959	3108.32
940.334	3125.64
943.708	3147.06
947.083	3108.01
950.458	3112.64
953.833	3134.31
957.208	3146.47
960.582	3151.81
963.957	3162.14
967.332	3170.24
970.707	3183.32
974.082	3204.26
977.457	3199.27
980.831	3222.78
984.206	3149.81
987.581	3208.03
990.956	3175.35
994.331	3216.74
997.705	3189.26
1001.08	3167.14
1004.46	3237.99
1007.83	3268.45
1011.21	3264.32
1014.58	3240.74
1017.95	3265.77
1021.33	3251.26
1024.7	3302.36
1028.08	3304.43
1031.45	3286.58
1034.83	3281.74
1038.2	3288.1
1041.58	3288.9
1044.95	3356.51
1048.33	3333.43
1051.7	3303.31
1055.08	3331.24
1058.45	3322.17
1061.83	3348.4
1065.2	3356.41
1068.58	3313.91
1071.95	3320.8
1075.33	3336.93
1078.7	3371.79
1082.08	3442.55
1085.45	3385.91
1088.83	3393.53
1092.2	3399.8
1095.58	3433.14
1098.95	3418.23
1102.33	3418.14
1105.7	3422.47
1109.07	3472.23
1112.45	3463.7
1115.82	3414.96
1119.2	3460.1
1122.57	3424.73
1125.95	3475.15
1129.32	3453.78
1132.7	3469.66
1136.07	3523.62
1139.45	3474.86
1142.82	3523.27
1146.2	3513.62
1149.57	3488.52
1152.95	3518.62
1156.32	3539.16
1159.7	3548.07
1163.07	3573.61
1166.45	3535.79
1169.82	3601.07
1173.2	3546.39
1176.57	3574.8
1179.95	3582.22
1183.32	3584.34
1186.69	3584.47
1190.07	3591.99
1193.44	3625.07
1196.82	3613.91
1200.19	3652.2
1203.57	3635.28
1206.94	3672.04
1210.32	3673.32
1213.69	3635.69
1217.07	3666.93
1220.44	3657.98
1223.82	3717.09
1227.19	3656.34
1230.57	3739.48
1233.94	3753.14
1237.32	3783.25
1240.69	3751.93
1244.07	3771.94
1247.44	3795.7
1250.82	3784.69
1254.19	3765.81
1257.57	3772.4
1260.94	3796.77
1264.32	3809.86
1267.69	3851.84
1271.07	3868.95
1274.44	3871.77
1277.82	3887.19
1281.19	3903.38
1284.57	3946.25
1287.94	3935.44
1291.32	3958.9
1294.69	3965.24
1298.06	3925.99
1301.44	3952.04
1304.81	3937.97
1308.19	3994.5
1311.56	4029.45
1314.94	4046.26
