Measurement: Raman, 780 nm, unoriented, Raman Data Processed
Mineral: Paratooite-(La)
Rruff sample: R110066
Ideal chemistry: (La^3+^,Ca,Na,Sr)_6_Cu^2+^(CO_3_)_8_
Locality: Paratoo mine, Yunta, South Australia
Source: Renato & Adriana Pagano
Description: Aggregates of platy pale blue crystals
Measured chemistry: (La_1.93_Nd_0.48_Pr_0.15_Y_0.10_Gd_0.05_Sm_0.04_Na_1.65_Ca_1.53_Sr_0.33_)_Î£=6.26_Cu_0.81_C_7.98_O_23.75_F_0.23_S_0.02_
Raman shift (cm-1)	intensity
139.815	1034.9
142.708	1047.16
145.601	1061.74
148.493	1083.51
151.386	1101.32
154.279	1130.61
157.171	1151.43
160.064	1179.08
162.957	1217.71
165.85	1243.94
168.742	1285.62
171.635	1321.69
174.528	1356.65
177.42	1397.35
180.313	1421.9
183.206	1443.04
186.098	1468.64
188.991	1481.57
191.884	1500.92
194.776	1519.01
197.669	1521.17
200.562	1533.12
203.455	1556.4
206.347	1580.26
209.24	1601.64
212.133	1631.33
215.025	1654.81
217.918	1682.1
220.811	1700.02
223.703	1716.47
226.596	1733.31
229.489	1736.11
232.382	1738.12
235.274	1747.25
238.167	1744.99
241.06	1747.08
243.952	1744.25
246.845	1746.59
249.738	1740.61
252.631	1732.59
255.523	1714.21
258.416	1705.22
261.309	1694.63
264.201	1686.15
267.094	1674.52
269.987	1676.34
272.879	1676.23
275.772	1685.44
278.665	1689.31
281.558	1700.7
284.45	1714.94
287.343	1718.87
290.236	1728.5
293.128	1741.75
296.021	1748.2
298.914	1759.15
301.806	1767.73
304.699	1775.58
307.592	1771.57
310.485	1781.3
313.377	1775.34
316.27	1775.26
319.163	1771
322.055	1761.01
324.948	1752.83
327.841	1746.43
330.733	1736.3
333.626	1730.57
336.519	1728.12
339.411	1715
342.304	1703.68
345.197	1698.37
348.09	1690.01
350.982	1680.8
353.875	1673.59
356.768	1662.03
359.66	1649.21
362.553	1632.78
365.446	1619.24
368.339	1605.55
371.231	1590.97
374.124	1567.2
377.017	1551.3
379.909	1531.83
382.802	1520.32
385.695	1504.23
388.587	1490.53
391.48	1474.13
394.373	1456.36
397.265	1444.78
400.158	1427.21
403.051	1410.34
405.944	1399.77
408.836	1383.31
411.729	1369.68
414.622	1357.33
417.514	1338.99
420.407	1326.86
423.3	1311.29
426.192	1299.76
429.085	1281.62
431.978	1268.63
434.871	1263.5
437.763	1252.9
440.656	1232.75
443.549	1226.81
446.441	1213.47
449.334	1198.7
452.227	1189.38
455.12	1178.37
458.012	1173.85
460.905	1157.33
463.798	1147.88
466.69	1140.05
469.583	1130.41
472.476	1124.22
475.368	1117.72
478.261	1107.18
481.154	1100.56
484.046	1100.72
486.939	1087.32
489.832	1084.94
492.725	1081.89
495.617	1075.99
498.51	1074.63
501.403	1067.19
504.295	1067.62
507.188	1066.53
510.081	1063.09
512.973	1058.78
515.866	1054.94
518.759	1055.67
521.652	1051.77
524.544	1045.16
527.437	1044.77
530.33	1042.45
533.222	1040.16
536.115	1041.67
539.008	1036.71
541.9	1037.98
544.793	1040.11
547.686	1027.25
550.579	1025.27
553.471	1024.6
556.364	1021.87
559.257	1017.56
562.149	1011.06
565.042	1010.39
567.935	1006.98
570.827	1005.94
573.72	999.018
576.613	994.168
579.506	991.334
582.398	985.653
585.291	987.949
588.184	978.419
591.076	974.823
593.969	966.121
596.862	958.775
599.755	955.803
602.647	949.767
605.54	943.364
608.433	941.108
611.325	936.87
614.218	930.496
617.111	925.114
620.003	920.164
622.896	915.577
625.789	917.338
628.682	911.485
631.574	909.07
634.467	904.092
637.36	897.288
640.252	895.59
643.145	889.908
646.038	884.895
648.93	882.559
651.823	875.732
654.716	870.045
657.609	865.552
660.501	862.164
663.394	857.47
666.287	853.818
669.179	852.071
672.072	843.821
674.965	833.624
677.857	824.668
680.75	817.72
683.643	813.477
686.535	810.49
689.428	803.326
692.321	801.115
695.214	795.562
698.106	788.09
700.999	782.278
703.892	777.171
706.784	769.4
709.677	763.028
712.57	763.386
715.462	758.689
718.355	758.692
721.248	751.33
724.141	745.353
727.033	733.668
729.926	727.144
732.819	714.337
735.711	704.649
738.604	698.329
741.497	694.761
744.389	692.991
747.282	677.41
750.175	676.586
753.068	669.785
755.96	664.403
758.853	661.047
761.746	651.014
764.638	649.422
767.531	641.317
770.424	634.144
773.317	629.694
776.209	624.547
779.102	618.352
781.995	616.044
784.887	612.572
787.78	608.333
790.673	602.984
793.565	598.262
796.458	598.817
799.351	593.24
802.244	590.065
805.136	584.242
808.029	583.857
810.922	580.033
813.814	573.698
816.707	575.06
819.6	571.476
822.492	567.91
825.385	561.707
828.278	562.939
831.17	562.022
834.063	558.399
836.956	556.655
839.849	554.893
842.741	550.769
845.634	552.469
848.527	552.982
851.419	548.989
854.312	543.585
857.205	543.63
860.097	542.622
862.99	538.294
865.883	536.692
868.776	533.383
871.668	534.234
874.561	532.614
877.454	524.73
880.346	527.748
883.239	529.486
886.132	522.686
889.024	521.417
891.917	521.138
894.81	518.27
897.703	517.33
900.595	518.633
903.488	517.961
906.381	517.324
909.273	514.312
912.166	510.394
915.059	511.554
917.952	515.043
920.844	513.291
923.737	510.291
926.63	513.214
929.522	510.559
932.415	506.838
935.308	508.911
938.2	508.085
941.093	508.494
943.986	510.348
946.879	506.639
949.771	507.525
952.664	509.282
955.557	507.087
958.449	508.484
961.342	508.662
964.235	506.025
967.127	507.875
970.02	506.473
972.913	510.577
975.806	507.307
978.698	508.971
981.591	513.976
984.484	510.692
987.376	509.362
990.269	517.212
993.162	514.655
996.054	512.746
998.947	517.851
1001.84	518.679
1004.73	518.755
1007.62	518.016
1010.52	519.91
1013.41	520.845
1016.3	521.935
1019.2	525.736
1022.09	525.642
1024.98	522.636
1027.87	527.862
1030.77	528.987
1033.66	529.667
1036.55	534.655
1039.44	536.444
1042.34	535.293
1045.23	539.109
1048.12	542.787
1051.02	546.464
1053.91	549.883
1056.8	558.436
1059.69	566.955
1062.59	581.196
1065.48	596.914
1068.37	624.553
1071.27	655.383
1074.16	697.233
1077.05	722.768
1079.94	716.024
1082.84	697.837
1085.73	689.385
1088.62	707.088
1091.51	711.483
1094.41	718.679
1097.3	727.131
1100.19	702.639
1103.08	664.971
1105.98	645.888
1108.87	644.967
1111.76	646.125
1114.65	650.713
1117.55	654.203
1120.44	669.146
1123.33	677.216
1126.23	690.339
1129.12	691.154
1132.01	705.725
1134.9	715.817
1137.8	730.627
1140.69	745.577
1143.58	764.163
1146.47	774.41
1149.37	802.394
1152.26	816.62
1155.15	841.056
1158.05	863.441
1160.94	889.737
1163.83	919.89
1166.72	946.971
1169.62	986.719
1172.51	1023.14
1175.4	1068.11
1178.3	1114.49
1181.19	1173.67
1184.08	1232.2
1186.97	1296.73
1189.87	1373.46
1192.76	1461.95
1195.65	1560.6
1198.54	1666.1
1201.44	1782.77
1204.33	1914.95
1207.22	2058.38
1210.11	2223.89
1213.01	2386.04
1215.9	2568.43
1218.79	2746.66
1221.68	2920.22
1224.58	3067.77
1227.47	3198.61
1230.36	3279.67
1233.26	3308.64
1236.15	3281.72
1239.04	3222.74
1241.93	3166.91
1244.83	3128.92
1247.72	3123.12
1250.61	3145.06
1253.51	3197.57
1256.4	3277.79
1259.29	3348.5
1262.18	3393.59
1265.08	3436.7
1267.97	3437.67
1270.86	3427.42
1273.75	3386.06
1276.65	3332.81
1279.54	3272.45
1282.43	3221.02
1285.32	3166.57
