Measurement: Raman, 780 nm, unoriented, Raman Data Processed
Mineral: Pargasite
Rruff sample: R060072
Ideal chemistry: NaCa_2_(Mg_4_Al)(Si_6_Al_2_)O_22_(OH)_2_
Locality: Pein Pyit, Mogok, Burma
Source: Marcus Origlieri
Description: Pale green prismatic crystal embedded in calcite
Measured chemistry: (Na_0.81_K_0.19_)_Σ=1_(Ca_1.90_Na_0.10_)_Σ=2_(Mg_3.46_Al_0.45_Fe^2+^_0.05_Ti_0.04_)_Σ=4_Al_1.00_(Si_5.57_Al_2.43_)_Σ=8_O_22_(OH)_2_
Raman shift (cm-1)	intensity
150.362	0
153.254	136.069
156.147	215.853
159.04	514.3
161.932	240.423
164.825	578.676
167.718	985.283
170.61	386.915
173.503	866.52
176.396	711.383
179.288	506.734
182.181	1118.63
185.074	794.937
187.966	689.279
190.859	1023.78
193.752	658.457
196.645	115.111
199.537	246.083
202.43	235.134
205.323	2.73024
208.215	125.152
211.108	53.5774
214.001	35.6142
216.893	338.697
219.786	202.001
222.679	515.371
225.572	594.114
228.464	469.61
231.357	334.853
234.25	154.566
237.142	43.0571
240.035	467.294
242.928	334.165
245.821	351.023
248.713	909.263
251.606	207.5
254.499	99.3114
257.391	225.503
260.284	41.2864
263.177	340.772
266.069	824.073
268.962	410.476
271.855	681.363
274.748	331.898
277.64	91.736
280.533	590.711
283.426	943.949
286.318	535.202
289.211	678.369
292.104	736.172
294.996	150.056
297.889	311.466
300.782	296.545
303.675	101.098
306.567	360.351
309.46	398.597
312.353	294.097
315.245	552.843
318.138	518.552
321.031	471.907
323.923	516.613
326.816	458.355
329.709	543.862
332.601	597.333
335.494	782.068
338.387	990.318
341.279	1133.49
344.172	884.108
347.065	1034.63
349.958	1253.59
352.85	1185.92
355.743	1296.63
358.636	1250.44
361.528	885.084
364.421	698.577
367.314	331.102
370.207	232.164
373.099	323.819
375.992	159.83
378.885	286.996
381.777	109.499
384.67	90.9022
387.563	2.38967
390.455	45.2071
393.348	61.353
396.241	59.5931
399.134	297.461
402.026	64.1778
404.919	277.857
407.812	246.214
410.704	42.8055
413.597	230.29
416.49	44.5
419.382	5.63434
422.275	16.3436
425.168	194.929
428.06	216.395
430.953	492.71
433.846	140.135
436.739	482.763
439.631	394.894
442.524	186.844
445.417	111.98
448.309	217.117
451.202	221.755
454.095	318.103
456.988	321.496
459.88	348.611
462.773	711.259
465.666	610.536
468.558	592.36
471.451	815.248
474.344	1061.95
477.236	757.731
480.129	422.908
483.022	537.68
485.914	636.596
488.807	870.294
491.7	959.453
494.592	1025.27
497.485	1033.52
500.378	593.247
503.271	506.381
506.163	469.567
509.056	227.766
511.949	360.296
514.841	221.326
517.734	449.749
520.627	391.954
523.519	605.421
526.412	13.9834
529.305	40.4197
532.198	74.5599
535.09	63.8576
537.983	141.431
540.876	53.6725
543.768	46.0398
546.661	41.0803
549.554	38.0822
552.447	159.015
555.339	431.349
558.232	542.517
561.125	469.397
564.017	308.634
566.91	329.202
569.803	634.999
572.695	603.992
575.588	491.466
578.481	783.641
581.374	593.701
584.266	592.89
587.159	1111.66
590.052	883.354
592.944	737.782
595.837	368.398
598.73	667.065
601.622	102.886
604.515	227.123
607.408	323.032
610.301	102.013
613.193	364.348
616.086	283.911
618.979	413.199
621.871	420.205
624.764	568.257
627.657	493.534
630.549	549.182
633.442	714.241
636.335	859.598
639.227	1344.49
642.12	1172.85
645.013	888.016
647.905	1236.73
650.798	1174.93
653.691	1208.26
656.584	719.776
659.476	554.056
662.369	381.323
665.262	468.867
668.154	317.13
671.047	305.986
673.94	304.007
676.832	141.972
679.725	272.669
682.618	211.252
685.511	55.7219
688.403	326.026
691.296	205.953
694.189	32.0685
697.081	229.39
699.974	151.585
702.867	218.957
705.76	122.017
708.652	184.476
711.545	769.061
714.438	723.706
717.33	538.073
720.223	851.895
723.116	764.616
726.008	518.369
728.901	619.262
731.794	1022.78
734.687	674.61
737.579	952.502
740.472	1061.55
743.365	683.558
746.257	1043.78
749.15	727.449
752.043	270.698
754.935	181.912
757.828	24.6158
760.721	2.48038
763.614	227.652
766.506	118.122
769.399	159.279
772.292	81.8096
775.184	63.4596
778.077	113.115
780.97	354.661
783.862	4.01842
786.755	374.709
789.648	684.78
792.54	376.027
795.433	1010.51
798.326	902.191
801.218	734.944
804.111	735.807
807.004	994.245
809.897	762.132
812.789	1236.26
815.682	680.129
818.575	937.918
821.467	932.532
824.36	702.523
827.253	435.636
830.145	1047.08
833.038	796.24
835.931	626.688
838.824	804.121
841.716	422.878
844.609	50.6199
847.502	441.218
850.394	59.535
853.287	679.551
856.18	513.403
859.072	87.7231
861.965	347.862
864.858	440.018
867.751	43.6966
870.643	802.398
873.536	367.69
876.429	508.555
879.321	358.284
882.214	184.121
885.107	504.841
888	1061.36
890.892	324.193
893.785	672.095
896.678	431.177
899.57	27.7532
902.463	75.2755
905.356	35.0706
908.248	40.9222
911.141	275.007
914.034	524.001
916.927	11.0923
919.819	721.868
922.712	438.242
925.605	158.513
928.497	822.654
931.39	599.048
934.283	248.688
937.175	694.918
940.068	674.856
942.961	620.33
945.854	887.529
948.746	842.862
951.639	966.174
954.532	1117.62
957.424	679.553
960.317	1251.81
963.21	739.571
966.102	20.8075
968.995	559.278
971.888	331.889
974.78	84.5522
977.673	147.411
980.566	33.6028
983.458	7.33261
986.351	245.977
989.244	85.6397
992.137	14.07
995.029	332.558
997.922	177.014
1000.82	255.355
1003.71	397.773
1006.6	219.923
1009.49	307.547
1012.38	714.981
1015.28	311.774
1018.17	783.623
1021.06	969.514
1023.96	331.214
1026.85	909.938
1029.74	792.497
1032.63	222.898
1035.53	895.532
1038.42	930.64
1041.31	552.478
1044.2	967.167
1047.1	571.548
1049.99	1042.22
1052.88	997.148
1055.78	639.536
1058.67	684.834
1061.56	1356.14
1064.45	666.187
1067.35	658.531
1070.24	697.053
1073.13	760.982
1076.03	846.61
1078.92	709.752
1081.81	405.014
1084.7	675.228
1087.6	461.895
1090.49	448.436
1093.38	827.618
1096.27	168.852
1099.17	61.1297
1102.06	669.494
1104.95	201.438
1107.84	71.3471
1110.74	300.328
1113.63	40.028
1116.52	66.3755
1119.41	303.149
1122.31	106.356
1125.2	551.131
1128.09	3.08353
1130.99	98.0438
1133.88	276.695
1136.77	408.838
1139.66	144.93
1142.56	140.176
1145.45	262.066
1148.34	337.277
1151.23	340.89
1154.13	605.324
1157.02	507.134
1159.91	1242.75
1162.81	1104.57
1165.7	892.355
1168.59	1073.75
1171.48	756.715
1174.38	1083.51
1177.27	1258.44
1180.16	1137.2
1183.06	1373.68
1185.95	1581.46
1188.84	1241.4
1191.73	1780.57
1194.62	1622.59
1197.52	1223.97
1200.41	1155.76
1203.3	1509.33
1206.2	1209.72
1209.09	1084.79
1211.98	1004.35
1214.87	823.147
1217.77	1164.86
1220.66	775.979
1223.55	806.664
1226.44	856.314
1229.34	406.948
1232.23	184.205
1235.12	490.891
1238.02	36.7002
1240.91	70.6914
1243.8	391.241
1246.69	101.657
1249.59	61.1345
1252.48	703.443
1255.37	138.99
1258.27	251.353
1261.16	459.099
1264.05	259.477
1266.94	682.229
1269.84	518.249
1272.73	317.008
1275.62	560.839
1278.51	729.339
1281.41	27.9652
1284.3	158.041
