Measurement: Raman, 780 nm, unoriented, Raman Data Processed
Mineral: Pargasite
Rruff sample: R050321
Ideal chemistry: NaCa_2_(Mg_4_Al)(Si_6_Al_2_)O_22_(OH)_2_
Locality: Soper River, near Kimmirut, Baffin Island, Nunavut, Canada
Source: Frank Hawthorne
Description: Greenish brown transparent fragment
Measured chemistry: (Na_0.77_K_0.23_)(Ca_1.90_Na_0.10_)_=2_Mg_4.00_(Al_0.58_Fe^3+^_0.07_Ti_0.05_Mg_0.30_)(Si_6.24_Al_1.76_)_=8_O_22_((OH)_0.69_F_0.31_)_2_
Raman shift (cm-1)	intensity
128.682	0
132.057	3.91602
135.432	0.485718
138.807	4.87317
142.181	2.67627
145.556	4.87781
148.931	5.32056
152.306	3.71435
155.681	2.1488
159.055	6.31311
162.43	6.72095
165.805	4.44446
169.18	10.4773
172.555	6.57312
175.93	6.74194
179.304	8.33606
182.679	9.4176
186.054	8.40161
189.429	8.08667
192.804	6.95178
196.179	0.997681
199.553	0.720703
202.928	0.917969
206.303	6.46655
209.678	4.68494
213.053	6.90234
216.427	12.6932
219.802	14.5651
223.177	16.1811
226.552	24.908
229.927	24.7535
233.302	24.1526
236.676	24.0406
240.051	29.3423
243.426	25.6764
246.801	20.8007
250.176	19.1952
253.55	17.3932
256.925	17.0135
260.3	7.44385
263.675	6.48987
267.05	4.42248
270.425	4.00793
273.799	6.79102
277.174	0.842529
280.549	5.93115
283.924	3.63013
287.298	3.25549
290.673	5.1886
294.048	5.8064
297.423	6.97119
300.798	1.42834
304.173	3.49475
307.547	1.94641
310.922	3.88928
314.297	0.280518
317.672	6.81506
321.047	7.63892
324.421	8.80066
327.796	5.57935
331.171	3.44617
334.546	6.13049
337.921	1.44958
341.296	4.44556
344.67	2.77185
348.045	0.293335
351.42	1.61633
354.795	0.136475
358.17	3.69458
361.545	0.101196
364.919	5.14587
368.294	2.05737
371.669	6.05957
375.044	2.69739
378.419	6.50281
381.793	4.0929
385.168	6.30566
388.543	10.1378
391.918	10.0985
395.293	12.5707
398.668	11.5367
402.042	11.7385
405.417	16.2548
408.792	15.2404
412.167	16.9112
415.541	16.9033
418.916	20.155
422.291	22.7483
425.666	21.5903
429.041	17.4871
432.416	16.2478
435.79	15.694
439.165	14.4377
442.54	15.2341
445.915	10.1963
449.29	12.2148
452.664	8.68726
456.039	10.5322
459.414	11.6799
462.789	10.8582
466.164	8.95239
469.539	8.07202
472.913	10.7655
476.288	5.39587
479.663	8.59521
483.038	2.82153
486.413	9.93372
489.788	6.14233
493.162	3.84876
496.537	3.11108
499.912	4.02185
503.287	0.604858
506.662	0.442627
510.036	1.27087
513.411	6.82056
516.786	3.24951
520.161	1.69849
523.536	0.692261
526.91	3.5907
530.285	2.7439
533.66	0.925781
537.035	1.83984
540.41	2.70007
543.784	2.59131
547.159	0.43335
550.534	3.37183
553.909	2.64319
557.284	2.83301
560.659	6.80066
564.033	3.85114
567.408	5.867
570.783	5.47412
574.158	1.90039
577.533	3.51508
580.908	4.2934
584.282	0.426575
587.657	5.69196
591.032	8.58282
594.407	1.65625
597.782	0.610168
601.156	2.53687
604.531	0.017578
607.906	3.08606
611.281	2.00171
614.656	4.25061
618.03	1.06299
621.405	7.84564
624.78	6.39832
628.155	8.1709
631.53	3.97437
634.905	7.93683
638.279	9.71307
641.654	12.8591
645.029	14.4977
648.404	21.1899
651.779	21.4862
655.154	23.3772
658.528	28.1907
661.903	33.1926
665.278	41.0994
668.653	42.8538
672.028	38.1949
675.402	31.8338
678.777	28.1384
682.152	21.9177
685.527	17.8358
688.902	14.5189
692.277	11.5627
695.651	11.6971
699.026	6.44482
702.401	3.99567
705.776	2.6687
709.15	2.66425
712.525	0.162354
715.9	2.48377
719.275	0.551697
722.65	2.3974
726.025	1.07929
729.399	0.403564
732.774	1.56244
736.149	1.37512
739.524	5.36676
742.899	4.15991
746.274	4.11328
749.648	3.55188
753.023	5.75934
756.398	0.86792
759.773	0.956604
763.148	0.166382
766.522	5.28528
769.897	1.10968
773.272	3.94232
776.647	4.58551
780.022	3.25452
783.396	2.86957
786.771	2.01196
790.146	6.89026
793.521	3.96588
796.896	4.65234
800.271	6.28449
803.645	4.9975
807.02	4.60809
810.395	7.37335
813.77	5.36603
817.145	7.77533
820.519	8.7702
823.894	5.40515
827.269	8.74231
830.644	9.23999
834.019	8.38202
837.394	4.60254
840.768	6.84766
844.143	5.66412
847.518	7.50854
850.893	4.2796
854.268	7.56421
857.643	2.72589
861.017	2.73468
864.392	6.12878
867.767	4.49542
871.142	7.72723
874.516	4.57886
877.891	4.49078
881.266	1.40387
884.641	1.17676
888.016	0.90741
891.391	1.36072
894.765	4.78937
898.14	3.99945
901.515	2.39307
904.89	1.2326
908.265	3.74121
911.639	3.44775
915.014	3.47632
918.389	4.15466
921.764	2.84631
925.139	3.19531
928.514	6.4997
931.888	7.59039
935.263	1.28442
938.638	3.16479
942.013	1.73102
945.388	4.08429
948.763	3.89014
952.137	2.66077
955.512	9.42114
958.887	3.08813
962.262	3.04742
965.636	4.22009
969.011	0.21875
972.386	1.01813
975.761	3.38605
979.136	0.533508
982.511	1.3905
985.885	0.282166
989.26	4.62988
992.635	1.65308
996.01	1.42304
999.385	2.32666
1002.76	2.86395
1006.13	0.991638
1009.51	4.8678
1012.88	0.478027
1016.26	1.7124
1019.63	3.8753
1023.01	3.63055
1026.38	2.53583
1029.76	4.61017
1033.13	8.01587
1036.51	3.99048
1039.88	2.21411
1043.26	6.40595
1046.63	3.32397
1050.01	6.34705
1053.38	3.71582
1056.76	2.19269
1060.13	4.22492
1063.51	6.06091
1066.88	7.11755
1070.26	2.21429
1073.63	7.64221
1077.01	11.4883
1080.38	9.47437
1083.76	9.26611
1087.13	8.36359
1090.51	13.0427
1093.88	10.7816
1097.25	10.8104
1100.63	12.2598
1104	2.55133
1107.38	2.04224
1110.75	6.46747
1114.13	3.78052
1117.5	4.19214
1120.88	1.54968
1124.25	1.42047
1127.63	2.46478
1131	2.18884
1134.38	3.13226
1137.75	0.695374
1141.13	1.69403
1144.5	0.46991
1147.88	0.13324
1151.25	1.90283
1154.63	3.70819
1158	3.73755
1161.38	4.70001
1164.75	1.68481
1168.12	3.10687
1171.5	4.18768
1174.88	5.13153
1178.25	7.7381
1181.62	5.11078
1185	5.41217
1188.37	8.67004
1191.75	6.63733
1195.12	1.37109
1198.5	5.96845
1201.87	7.81335
1205.25	10.0541
1208.62	10.3226
1212	10.6139
1215.37	7.71564
1218.75	8.03235
1222.12	8.27673
1225.5	9.82178
1228.87	8.31348
1232.25	9.12024
1235.62	6.46301
1239	9.61755
1242.37	6.74805
1245.75	4.77515
1249.12	4.17737
1252.5	6.43591
1255.87	4.43957
1259.25	4.24927
1262.62	2.81567
1265.99	1.36023
1269.37	3.95923
1272.74	7.13782
1276.12	4.41797
1279.49	3.92273
1282.87	5.901
1286.24	0
