Measurement: Raman, 780 nm, unoriented, Raman Data Processed
Mineral: Parisite-(Ce)
Rruff sample: R120065
Ideal chemistry: CaCe_2_(CO_3_)_3_F_2_
Locality: East Kemptville Tin mine, East Kemptville, Argyle, Yarmouth Co., Nova Scotia, Canada
Source: Donald Doell
Description: Pale orange hexagonal prismatic crystals, associated with R120064, anatase
Raman shift (cm-1)	intensity
169.224	6824.02
172.117	7437.47
175.01	8246
177.902	9106.93
180.795	9938.89
183.688	10654.1
186.581	11128.4
189.473	11380.5
192.366	11494.6
195.259	11496.7
198.151	11476.8
201.044	11078.5
203.937	10619.1
206.829	10207.6
209.722	9823.23
212.615	9480.15
215.507	9228.44
218.4	8902.59
221.293	8683.38
224.186	8568.84
227.078	8470.69
229.971	8646.16
232.864	8731.61
235.756	8786.73
238.649	8613.46
241.542	8114.95
244.435	7771.4
247.327	7548.96
250.22	7485.8
253.113	7572.5
256.005	7808.16
258.898	8109.46
261.791	8431.19
264.683	8807.66
267.576	9071.22
270.469	9201.33
273.361	9245.77
276.254	9286.74
279.147	9339.62
282.04	9384.91
284.932	9478.82
287.825	9538.28
290.718	9768.57
293.61	9952.89
296.503	10249.9
299.396	10419.1
302.288	10716.9
305.181	11023.7
308.074	11501
310.967	11772.6
313.859	12068.5
316.752	12405.9
319.645	12505
322.537	12778.9
325.43	12850.9
328.323	12764.7
331.216	12623.2
334.108	12397.2
337.001	12068.1
339.894	11717.9
342.786	11347.7
345.679	11003.6
348.572	10680.1
351.464	10426.4
354.357	10185.2
357.25	9980.79
360.142	9844.4
363.035	9680.1
365.928	9671.78
368.821	9703.86
371.713	9755.9
374.606	9876.27
377.499	9931.45
380.391	9962.47
383.284	9995.23
386.177	9977.33
389.07	9894.84
391.962	9871.75
394.855	9707.98
397.748	9397.1
400.64	9196.45
403.533	8925.97
406.426	8564.67
409.318	8195.95
412.211	7856.69
415.104	7466.23
417.997	7058.89
420.889	6782.28
423.782	6389.74
426.675	6105.52
429.567	5832.92
432.46	5572.09
435.353	5459.96
438.245	5190.95
441.138	5025.41
444.031	4901.06
446.923	4800.99
449.816	4678.12
452.709	4582.29
455.602	4531.75
458.494	4448.61
461.387	4344.32
464.28	4276.38
467.172	4185.95
470.065	4120.51
472.958	4082.65
475.851	4031.51
478.743	4025.92
481.636	4082.84
484.529	4057.91
487.421	4134.53
490.314	4166.31
493.207	4175.94
496.099	4336.22
498.992	4385.41
501.885	4526.46
504.777	4694.92
507.67	4922.78
510.563	5036.09
513.456	5164.67
516.348	5237.69
519.241	5354.55
522.134	5434.27
525.026	5422.62
527.919	5431.9
530.812	5372.85
533.705	5373.4
536.597	5358.12
539.49	5354.01
542.383	5340.34
545.275	5409.24
548.168	5414.91
551.061	5535.19
553.953	5596.19
556.846	5649.46
559.739	5700.62
562.631	5700.26
565.524	5727.01
568.417	5637.99
571.31	5623.08
574.202	5607.89
577.095	5519.16
579.988	5441.51
582.88	5274.67
585.773	5200.8
588.666	5109.34
591.558	4933.67
594.451	4773.92
597.344	4625.01
600.237	4452.59
603.129	4286.18
606.022	4090.46
608.915	3947.07
611.807	3770.76
614.7	3595.29
617.593	3498.06
620.486	3349.99
623.378	3294.59
626.271	3228.54
629.164	3135.87
632.056	3109.18
634.949	3059.05
637.842	3025.63
640.734	2971.63
643.627	3008.93
646.52	3024.78
649.413	3029.82
652.305	3084.35
655.198	3094.53
658.091	3099.73
660.983	3161.29
663.876	3156.24
666.769	3194.52
669.661	3211.07
672.554	3261.38
675.447	3237.02
678.34	3262.98
681.232	3292.88
684.125	3277.59
687.018	3244.01
689.91	3169.16
692.803	3122.09
695.696	3018.53
698.588	2920.6
701.481	2791.87
704.374	2633.35
707.266	2474.46
710.159	2292.85
713.052	2096.48
715.945	1935.51
718.837	1816.79
721.73	1669.3
724.623	1582.64
727.515	1467.53
730.408	1389.72
733.301	1312.14
736.193	1275.87
739.086	1221.59
741.979	1177.15
744.872	1127.4
747.764	1095.84
750.657	1072.52
753.55	1034.62
756.442	1043.34
759.335	986.296
762.228	968.125
765.12	937.527
768.013	943.391
770.906	909.104
773.799	912.912
776.691	916.882
779.584	907.322
782.477	909.816
785.369	899.24
788.262	898.415
791.155	881.763
794.048	880.259
796.94	890.397
799.833	883.63
802.726	873.61
805.618	879.736
808.511	875.257
811.404	875.78
814.296	859.055
817.189	883.443
820.082	876.735
822.975	884.109
825.867	924.592
828.76	903.814
831.653	934.192
834.545	927.064
837.438	938.677
840.331	950.476
843.223	1002.46
846.116	997.838
849.009	1026.19
851.902	1055.43
854.794	1088.02
857.687	1092.12
860.58	1109.21
863.472	1191.07
866.365	1187.67
869.258	1231.5
872.15	1263.29
875.043	1304.62
877.936	1319.73
880.829	1339.21
883.721	1396.66
886.614	1439.49
889.507	1467.23
892.399	1510.93
895.292	1540.58
898.185	1612.69
901.077	1687.84
903.97	1730.5
906.863	1797.35
909.756	1873.17
912.648	1921.83
915.541	1997.02
918.434	2006.48
921.326	2085.22
924.219	2126.77
927.112	2185.69
930.005	2210.5
932.897	2253.16
935.79	2273.45
938.683	2292.15
941.575	2341.11
944.468	2403.18
947.361	2461.1
950.253	2502
953.146	2602.78
956.039	2633.14
958.932	2690.6
961.824	2759.48
964.717	2821.22
967.61	2900.39
970.502	2955.61
973.395	3017.89
976.288	3089.97
979.18	3145.63
982.073	3232.66
984.966	3318.01
987.859	3380.57
990.751	3449.03
993.644	3491.15
996.537	3574.67
999.429	3682.97
1002.32	3757.99
1005.22	3822.34
1008.11	3840.94
1011	3915.86
1013.89	3920.62
1016.78	3985.94
1019.68	4030.65
1022.57	4020.66
1025.46	4108.75
1028.36	4130.39
1031.25	4239.01
1034.14	4351.02
1037.03	4450.95
1039.93	4522.54
1042.82	4654.97
1045.71	4844.8
1048.61	5032.68
1051.5	5089.28
1054.39	5328.79
1057.28	5571.8
1060.18	5779.9
1063.07	5993.72
1065.96	6259.27
1068.85	6492.89
1071.75	6739.13
1074.64	6956.61
1077.53	7178.37
1080.42	7518.54
1083.32	7789.19
1086.21	7989.66
1089.1	8344.22
1092	8633.07
1094.89	9072.9
1097.78	9471.17
1100.67	9911.65
1103.57	10270
1106.46	10731.9
1109.35	11355.9
1112.24	11894.9
1115.14	12365.7
1118.03	12919.9
1120.92	13581.3
1123.82	14133.6
1126.71	14707.8
1129.6	15354.4
1132.49	15896.4
1135.39	16737
1138.28	17428.8
1141.17	18227.4
1144.06	19254.6
1146.96	20359.3
1149.85	21592
1152.74	23157.9
1155.63	24933
1158.53	27065.5
1161.42	29720.6
1164.31	33036.3
1167.21	36999.6
1170.1	41889.7
1172.99	48109.9
1175.88	56213.5
1178.78	66765.3
1181.67	81169.1
1184.56	100254
1187.45	125135
1190.35	156059
1193.24	191521
1196.13	228301
1199.03	257886
1201.92	271827
1204.81	265339
1207.7	249582
1210.6	237570
1213.49	237655
1216.38	251292
1219.27	272304
1222.17	293037
1225.06	298575
1227.95	278433
1230.85	239926
1233.74	203423
1236.63	179556
1239.52	170921
1242.42	178540
1245.31	203155
1248.2	246637
1251.09	304137
1253.99	364580
1256.88	400949
1259.77	387273
1262.66	333568
1265.56	270275
1268.45	216951
1271.34	177328
1274.24	149479
1277.13	128379
1280.02	113306
1282.91	102967
