Measurement: Raman, 780 nm, unoriented, Raman Data Processed
Mineral: Parisite-(Ce)
Rruff sample: R120061
Ideal chemistry: CaCe_2_(CO_3_)_3_F_2_
Locality: Snowbird mine, Fish Creek, Alberton, Mineral County, Montana, USA
Source: Donald Doell
Description: Brown hexagonal prismatic crystals, associated with white quartz
Raman shift (cm-1)	intensity
94.0141	0
97.3889	365.941
100.764	664.871
104.138	1160.78
107.513	1783.72
110.888	2396.52
114.263	2924.01
117.638	3488.35
121.013	3297.74
124.388	2187.15
127.762	1530.81
131.137	698.006
134.512	153.397
137.887	127.365
141.262	50.9824
144.636	8.31836
148.011	524.695
151.386	1111.44
154.761	2797.72
158.136	5464.56
161.51	7427.49
164.885	10876.7
168.26	14162.3
171.635	17579.6
175.01	21211.6
178.385	23709.6
181.759	25365.3
185.134	25176
188.509	23187.7
191.884	19577.8
195.259	15379.8
198.633	11652.1
202.008	8636.93
205.383	7100.57
208.758	5771.85
212.133	4429.03
215.507	3320.16
218.882	1867.02
222.257	940.039
225.632	21.7031
229.007	357.289
232.382	518.258
235.756	223.719
239.131	21.2734
242.506	130.219
245.881	399.07
249.256	143.477
252.631	204.766
256.005	24.2891
259.38	823.898
262.755	1388.63
266.13	1501.93
269.505	1986.32
272.879	2001.47
276.254	2147.02
279.629	2529.99
283.004	2815.12
286.379	2882.44
289.753	3381.98
293.128	4280.8
296.503	5037.75
299.878	5932.41
303.253	6839.59
306.628	7931.34
310.002	8669.01
313.377	8889.02
316.752	9732.38
320.127	9549.37
323.502	9758.93
326.877	9478.41
330.251	8895.47
333.626	8721.63
337.001	8976.46
340.376	8834.43
343.75	8528.02
347.125	8851.54
350.5	8492.8
353.875	8803.59
357.25	8853.81
360.625	8703.94
364	8510.08
367.374	8232.68
370.749	9125.9
374.124	7888.96
377.499	7902.67
380.873	7736.34
384.248	7388.78
387.623	7033.48
390.998	6663.41
394.373	6321.41
397.748	5916.14
401.122	5417.34
404.497	4930.56
407.872	4435.02
411.247	3558.95
414.622	3117.27
417.997	2250.48
421.371	1924.41
424.746	1316.39
428.121	837.039
431.496	712.93
434.871	29.8359
438.245	119.312
441.62	292.219
444.995	273.406
448.37	612.734
451.745	368.211
455.12	451.555
458.494	350.953
461.869	95.6875
465.244	187.617
468.619	337.43
471.994	742.797
475.368	1262.74
478.743	1409.86
482.118	1817.4
485.493	2510.01
488.868	3017.04
492.243	3874.36
495.617	4620.17
498.992	5466.12
502.367	6282.81
505.742	6906.41
509.117	7472.59
512.491	8336.66
515.866	8411.74
519.241	9100.55
522.616	9597.42
525.991	9650.15
529.365	9321.44
532.74	9689.65
536.115	9304.75
539.49	9370.34
542.865	8968.31
546.24	8578.7
549.614	8313.02
552.989	7946.42
556.364	7645.62
559.739	7108.51
563.114	6663.81
566.489	6095.04
569.863	5610.34
573.238	5219.37
576.613	4798.34
579.988	4015.09
583.362	3355.12
586.737	2796.91
590.112	2157.7
593.487	1485.81
596.862	970.637
600.237	331.082
603.611	39.2812
606.986	133.531
610.361	125.836
613.736	290.68
617.111	116.195
620.486	114.949
623.86	470.012
627.235	995.606
630.61	1491.54
633.985	1774.44
637.36	2343.36
640.734	2709.53
644.109	2974.93
647.484	3440.73
650.859	3500.98
654.234	3687.94
657.609	3888.77
660.983	4070.38
664.358	4028.29
667.733	4268.63
671.108	4454.77
674.483	4444.37
677.857	4361.52
681.232	4289.69
684.607	4253.86
687.982	3958.8
691.357	3686.19
694.731	3504.31
698.106	2993.76
701.481	2920.02
704.856	2180.97
708.231	1835.18
711.606	1512.22
714.98	1094.06
718.355	799.436
721.73	450.393
725.105	354.24
728.48	210.836
731.855	359.65
735.229	38.0527
738.604	44.4258
741.979	107.144
745.354	166.414
748.729	63.0547
752.103	15.6016
755.478	13.1152
758.853	19.918
762.228	38.3398
765.603	168.156
768.977	387.062
772.352	291.977
775.727	562.885
779.102	620.949
782.477	706.242
785.852	805.174
789.226	874.842
792.601	1225.5
795.976	1210.61
799.351	1346.6
802.726	1255.12
806.101	1463.57
809.475	1549.33
812.85	1570.04
816.225	1610.84
819.6	1892.63
822.975	2023.62
826.349	1960.95
829.724	1933.03
833.099	2152.93
836.474	2289.02
839.849	2439.78
843.223	2427.11
846.598	2597.01
849.973	2533.91
853.348	2716.57
856.723	2805.18
860.097	2887.78
863.472	2688.82
866.847	2745.18
870.222	2826.72
873.597	2689.51
876.972	2662.85
880.346	2693.36
883.721	2770.5
887.096	2591.34
890.471	2460.83
893.846	2544.62
897.221	2465.57
900.595	2509.84
903.97	2377.82
907.345	2391.63
910.72	2234.55
914.095	2118.03
917.469	2109.73
920.844	1813.9
924.219	1727.77
927.594	1327.2
930.969	1137.44
934.343	944.234
937.718	615.057
941.093	388.641
944.468	245.934
947.843	144.109
951.218	362.471
954.592	316.227
957.967	564.852
961.342	741.922
964.717	875.793
968.092	792.621
971.466	795.676
974.841	811.508
978.216	835.738
981.591	677.481
984.966	580.953
988.341	209.82
991.715	22.9648
995.09	500.441
998.465	704.269
1001.84	1176
1005.22	1651.39
1008.59	2250.38
1011.96	3245.18
1015.34	4108.27
1018.71	5152.62
1022.09	6211.2
1025.46	7367.52
1028.84	8497.97
1032.21	10563.2
1035.59	11984.8
1038.96	13920.6
1042.34	15801.2
1045.71	17712.7
1049.09	20680.6
1052.46	23452.9
1055.84	26973.5
1059.21	30569.6
1062.59	34549.6
1065.96	38867.4
1069.34	42784
1072.71	46337.8
1076.09	49610.2
1079.46	52465.1
1082.84	55994.8
1086.21	58603.2
1089.59	61449.3
1092.96	64577.8
1096.34	66134.1
1099.71	69638.5
1103.08	74875.6
1106.46	81105.5
1109.83	90421
1113.21	95903.2
1116.58	101974
1119.96	103962
1123.33	100772
1126.71	93166.1
1130.08	85207.8
1133.46	74747.3
1136.83	65064.8
1140.21	54521.2
1143.58	43709.4
1146.96	34633.3
1150.33	22718.3
1153.71	14143.6
1157.08	4216.72
1160.46	3802
1163.83	8810.78
1167.21	15004.2
1170.58	16889
1173.96	14866
1177.33	9910.94
1180.7	3245.56
1184.08	20665.6
1187.45	51807.9
1190.83	95773.6
1194.2	154172
1197.58	235572
1200.95	339397
1204.33	472008
1207.7	637850
1211.08	829599
1214.45	1.03212e+06
1217.83	1.22096e+06
1221.2	1.346e+06
1224.58	1.40162e+06
1227.95	1.36556e+06
1231.33	1.21278e+06
1234.7	1.02215e+06
1238.08	844287
1241.45	760604
1244.83	825252
1248.2	999738
1251.58	1.17978e+06
1254.95	1.26942e+06
1258.33	1.22268e+06
1261.7	1.07468e+06
1265.08	867579
1268.45	641147
1271.83	427678
1275.2	238767
1278.58	92306.8
1281.95	2658.75
1285.32	0
