Measurement: Raman, 785 nm, unoriented, Raman Data Processed
Mineral: Parkerite
Rruff sample: R070056
Ideal chemistry: Ni_3_(Bi,Pb)_2_S_2_
Locality: Otjabrsky deposit, Norilsk ore district, Russia
Source: Michael Scott
Description: Bronze metallic polished fragment
Raman shift (cm-1)	intensity
183.021	0
185.914	1.20205
188.806	8.46275
191.699	17.6672
194.592	14.6684
197.484	11.8179
200.377	22.8311
203.27	19.8587
206.163	19.163
209.055	13.068
211.948	27.1044
214.841	21.969
217.733	25.9936
220.626	21.5877
223.519	21.5759
226.411	2.0015
229.304	1.7185
232.197	1.74589
235.09	0.411315
237.982	0.079494
240.875	3.93847
243.768	3.3625
246.66	0.281232
249.553	14.5399
252.446	42.63
255.339	48.4629
258.231	34.4114
261.124	51.3644
264.017	46.6901
266.909	55.8044
269.802	62.6116
272.695	56.7658
275.587	46.4269
278.48	43.8889
281.373	48.5637
284.265	48.8013
287.158	75.3958
290.051	70.9326
292.944	92.2639
295.836	69.8342
298.729	26.3489
301.622	16.8456
304.514	14.9951
307.407	19.8854
310.3	22.2511
313.192	32.4185
316.085	29.5535
318.978	53.7191
321.871	53.9834
324.763	40.5416
327.656	24.2741
330.549	1.84223
333.441	0.834102
336.334	3.56186
339.227	20.9231
342.12	16.1507
345.012	14.0261
347.905	23.5054
350.798	9.12355
353.69	5.70667
356.583	11.5505
359.476	3.54258
362.368	3.94582
365.261	16.8028
368.154	8.27051
371.046	1.24476
373.939	13.8226
376.832	11.3289
379.725	18.2952
382.617	3.30501
385.51	2.39977
388.403	4.21619
391.295	2.92177
394.188	6.69266
397.081	4.55997
399.974	6.39477
402.866	3.64162
405.759	12.5392
408.652	11.0198
411.544	3.65438
414.437	9.50121
417.33	18.5168
420.222	15.2446
423.115	8.89491
426.008	17.8319
428.901	1.16651
431.793	7.08354
434.686	13.4734
437.579	3.12801
440.471	5.32055
443.364	8.01185
446.257	19.5277
449.149	7.42161
452.042	12.9523
454.935	10.3596
457.827	15.6676
460.72	7.65137
463.613	9.49293
466.506	20.6695
469.398	8.90209
472.291	9.32739
475.184	4.71151
478.076	11.8957
480.969	0.866965
483.862	1.89273
486.755	7.27337
489.647	4.43367
492.54	9.15983
495.433	4.19278
498.325	8.39768
501.218	9.53954
504.111	10.9764
507.003	11.6211
509.896	9.08471
512.789	1.38177
515.682	10.9895
518.574	15.6589
521.467	14.7876
524.36	8.59437
527.252	4.55472
530.145	0.645695
533.038	1.02957
535.93	12.8781
538.823	14.3937
541.716	5.9854
544.609	2.6468
547.501	3.19948
550.394	18.6546
553.287	8.57368
556.179	3.84452
559.072	5.68278
561.965	3.50456
564.857	0.96288
567.75	13.8093
570.643	0.643556
573.535	2.93314
576.428	2.00058
579.321	0.523285
582.214	8.19041
585.106	3.90816
587.999	4.03943
590.892	9.75828
593.784	16.0911
596.677	6.81168
599.57	0.195989
602.462	4.03108
605.355	9.10674
608.248	13.9146
611.141	10.9849
614.033	3.20123
616.926	2.75202
619.819	6.42131
622.711	3.84091
625.604	10.8675
628.497	19.1298
631.389	1.80304
634.282	18.3036
637.175	3.88599
640.068	4.02317
642.96	14.1173
645.853	9.19068
648.746	7.16536
651.638	3.52864
654.531	10.4316
657.424	9.10295
660.317	8.29218
663.209	2.89272
666.102	12.7628
668.995	6.68844
671.887	15.5477
674.78	2.27367
677.673	17.3071
680.565	12.4539
683.458	14.2481
686.351	13.3201
689.244	1.2838
692.136	14.0572
695.029	1.86579
697.922	2.08488
700.814	8.37954
703.707	4.51218
706.6	9.55803
709.492	13.8619
712.385	6.76957
715.278	8.63453
718.17	2.41667
721.063	5.309
723.956	15.8289
726.849	12.5773
729.741	0.571196
732.634	2.52945
735.527	16.8428
738.419	11.3039
741.312	21.6317
744.205	19.7954
747.097	3.3438
749.99	16.1864
752.883	3.77474
755.776	1.59635
758.668	5.67556
761.561	3.06868
764.454	9.67067
767.346	1.38986
770.239	7.7633
773.132	3.43981
776.024	9.98624
778.917	15.39
781.81	10.244
784.703	4.67352
787.595	7.31576
790.488	9.84793
793.381	0.154819
796.273	22.7652
799.166	7.18336
802.059	2.58802
804.952	11.8337
807.844	0.358476
810.737	12.0756
813.63	26.047
816.522	15.8716
819.415	12.1309
822.308	6.9749
825.2	8.45811
828.093	13.6216
830.986	11.6976
833.879	1.32443
836.771	2.25909
839.664	5.49448
842.557	4.01553
845.449	20.1072
848.342	13.2956
851.235	15.2843
854.127	4.92366
857.02	13.3372
859.913	9.62028
862.806	2.1467
865.698	1.11245
868.591	7.99489
871.484	2.27036
874.376	9.21931
877.269	9.30025
880.162	23.9367
883.054	12.4526
885.947	18.3599
888.84	10.5683
891.732	16.2106
894.625	18.4832
897.518	21.591
900.411	15.2483
903.303	5.87297
906.196	19.1171
909.089	9.36162
911.981	7.00071
914.874	17.3082
917.767	8.30224
920.659	7.42374
923.552	10.8019
926.445	6.0946
929.338	14.3863
932.23	1.79691
935.123	23.2729
938.016	2.59885
940.908	0.163581
943.801	6.13398
946.694	0.294266
949.587	1.64843
952.479	2.24623
955.372	12.0121
958.265	14.4271
961.157	1.89403
964.05	0.128876
966.943	7.82051
969.835	3.57706
972.728	10.5366
975.621	8.25266
978.514	5.19547
981.406	19.9161
984.299	14.7594
987.192	15.2209
990.084	1.35205
992.977	11.978
995.87	6.9258
998.762	12.6072
1001.65	16.2843
1004.55	3.70517
1007.44	8.09306
1010.33	0.938326
1013.23	9.68627
1016.12	11.0385
1019.01	12.9374
1021.9	15.6916
1024.8	7.28855
1027.69	13.8482
1030.58	0.855405
1033.47	16.8308
1036.37	20.2188
1039.26	18.119
1042.15	1.90754
1045.05	11.5268
1047.94	11.0023
1050.83	4.09684
1053.72	17.3357
1056.62	21.3515
1059.51	16.3959
1062.4	8.66142
1065.29	11.0571
1068.19	14.773
1071.08	21.3016
1073.97	11.182
1076.87	6.50624
1079.76	2.51514
1082.65	18.9313
1085.54	19.4223
1088.44	23.2388
1091.33	17.1489
1094.22	8.27496
1097.11	29.9688
1100.01	11.6637
1102.9	12.5099
1105.79	4.59741
1108.68	3.78098
1111.58	9.79593
1114.47	21.5415
1117.36	18.5771
1120.26	17.4991
1123.15	13.7814
1126.04	18.455
1128.93	9.78742
1131.83	5.19875
1134.72	12.3051
1137.61	7.40992
1140.51	12.6236
1143.4	10.0002
1146.29	4.77583
1149.18	3.20827
1152.08	18.8015
1154.97	12.6544
1157.86	5.08375
1160.75	6.09946
1163.65	14.0834
1166.54	4.36701
1169.43	20.7412
1172.32	12.8691
1175.22	0.350941
1178.11	5.58258
1181	0.158876
1183.89	0.910314
1186.79	17.4746
1189.68	20.375
1192.57	17.5142
1195.47	10.76
1198.36	19.6927
1201.25	3.41841
1204.14	1.8532
1207.04	2.92631
1209.93	9.36509
1212.82	6.46928
1215.71	16.0275
1218.61	15.0559
1221.5	12.1836
1224.39	17.2332
1227.29	7.40316
1230.18	16.9864
1233.07	1.27152
1235.96	3.84272
1238.86	10.6385
1241.75	10.021
