Measurement: Raman, 532 nm, unoriented, Raman Data Processed
Mineral: Paulingite-Ca
Rruff sample: R120023
Ideal chemistry: (Ca,K,Na,Ba,[box])_10_(Si,Al)_42_O_84_34H_2_O
Locality: Vinařická hora hill, Kladno, Central Bohemian Region, Czech Republic
Source: Dr. Jürgen Wachsmuth
Description: Pale yellow rhombic dodecahedra
Raman shift (cm-1)	intensity
215.843	17992.3
218.735	18172.8
221.628	18432
224.521	18662.5
227.413	18869.7
230.306	19049.4
233.199	19196.1
236.091	19320.5
238.984	19364.6
241.877	19389.3
244.769	19496.8
247.662	19574.2
250.555	19674.6
253.448	19722.6
256.34	19784.8
259.233	19846.5
262.126	19905.6
265.018	19956.5
267.911	20057
270.804	20143.7
273.697	20257.2
276.589	20293
279.482	20338.4
282.375	20325.9
285.267	20303
288.16	20292.5
291.053	20405.7
293.945	20493
296.838	20535
299.731	20595.9
302.623	20682.8
305.516	20755.6
308.409	20759.2
311.302	20812.7
314.194	20829.3
317.087	20904.1
319.98	20909.4
322.872	20930.1
325.765	20980.5
328.658	20961
331.55	21032.8
334.443	21129.9
337.336	21213.5
340.229	21245.8
343.121	21214.2
346.014	21176.2
348.907	21263.9
351.799	21364.6
354.692	21410.5
357.585	21453.4
360.478	21493
363.37	21514.5
366.263	21514.8
369.156	21599.8
372.048	21667.4
374.941	21644.5
377.834	21676
380.726	21676
383.619	21734.9
386.512	21824.5
389.404	21846.6
392.297	21871.4
395.19	21918.5
398.083	21963.4
400.975	21984.4
403.868	22034.2
406.761	22113.9
409.653	22142.3
412.546	22224.5
415.439	22259.7
418.332	22234.9
421.224	22245.8
424.117	22250.1
427.01	22307
429.902	22401.9
432.795	22362
435.688	22395.3
438.58	22430.6
441.473	22468
444.366	22517
447.259	22564.8
450.151	22597.5
453.044	22623.3
455.937	22622.7
458.829	22724.1
461.722	22748.8
464.615	22765.9
467.507	22748.8
470.4	22778.1
473.293	22841.7
476.185	22885.7
479.078	22907.5
481.971	22947
484.864	22958.4
487.756	22999.9
490.649	23023.1
493.542	23074.4
496.434	23158.2
499.327	23162
502.22	23133.1
505.113	23111.9
508.005	23087.8
510.898	23150.4
513.791	23139.7
516.683	23112.2
519.576	23132.7
522.469	23178.8
525.361	23252.4
528.254	23328.3
531.147	23290.5
534.04	23279.6
536.932	23281.8
539.825	23319
542.718	23343.8
545.61	23365.3
548.503	23419.8
551.396	23473.9
554.288	23456.7
557.181	23433.4
560.074	23463
562.967	23474.9
565.859	23465.3
568.752	23482.9
571.645	23462.1
574.537	23475.4
577.43	23564.8
580.323	23610.2
583.216	23651.6
586.108	23627.4
589.001	23636.8
591.894	23702
594.786	23721
597.679	23669.2
600.572	23706.7
603.464	23658.2
606.357	23675.2
609.25	23707.6
612.142	23760.3
615.035	23754.7
617.928	23774.1
620.821	23775.8
623.713	23772.4
626.606	23775.5
629.499	23758
632.391	23800.2
635.284	23879.4
638.177	23876.7
641.069	23861.1
643.962	23885.3
646.855	23917
649.747	23939.8
652.64	23981.8
655.533	24046
658.426	24068.3
661.318	24090.9
664.211	24072.6
667.104	24062.1
669.996	24094.9
672.889	24077.4
675.782	24123.4
678.674	24164.5
681.567	24249.2
684.46	24267.9
687.353	24289.1
690.245	24330
693.138	24361.9
696.031	24345.1
698.923	24382.9
701.816	24330.8
704.709	24314.7
707.601	24372.5
710.494	24430.9
713.387	24439.1
716.28	24364.3
719.172	24361
722.065	24412.7
724.958	24475.2
727.85	24543.4
730.743	24570.9
733.636	24584.2
736.529	24546.8
739.421	24568.9
742.314	24542.1
745.207	24564.5
748.099	24574
750.992	24622.9
753.885	24726.1
756.777	24753.2
759.67	24736
762.563	24720.6
765.456	24742.8
768.348	24793.7
771.241	24805.1
774.134	24823.6
777.026	24808.1
779.919	24885.9
782.812	24884.1
785.704	24879.9
788.597	24852.5
791.49	24935.8
794.383	24987.3
797.275	24945.8
800.168	24930.5
803.061	24938.2
805.953	24987.3
808.846	25034
811.739	25043.9
814.631	25104.2
817.524	25175.3
820.417	25201.8
823.309	25204.1
826.202	25151.9
829.095	25148.2
831.988	25214
834.88	25206.4
837.773	25210.8
840.666	25253.8
843.558	25261.2
846.451	25293.8
849.344	25312.1
852.236	25320.1
855.129	25360.5
858.022	25424.1
860.915	25471.5
863.807	25468.9
866.7	25457.9
869.593	25486.6
872.485	25515.4
875.378	25590.8
878.271	25562.5
881.163	25546
884.056	25626.6
886.949	25672.4
889.842	25740.9
892.734	25692.3
895.627	25734.5
898.52	25717.5
901.412	25746.3
904.305	25780.2
907.198	25877.7
910.091	25923.1
912.983	25916.2
915.876	25953
918.769	25993.2
921.661	25946.1
924.554	25992.7
927.447	26016.2
930.339	26031.1
933.232	25985.1
936.125	25967.5
939.018	26060.4
941.91	26083.8
944.803	26172.7
947.696	26217.2
950.588	26195.8
953.481	26270.3
956.374	26201.2
959.266	26190
962.159	26236.5
965.052	26337.6
967.944	26356
970.837	26369.2
973.73	26323.8
976.623	26349.1
979.515	26482.8
982.408	26461
985.301	26493.4
988.193	26517.2
991.086	26627.7
993.979	26651.2
996.871	26657.5
999.764	26632.1
1002.66	26676.6
1005.55	26694
1008.44	26777.6
1011.34	26829.4
1014.23	26792.5
1017.12	26810.5
1020.01	26926.8
1022.91	26989.9
1025.8	26954.2
1028.69	27023.6
1031.58	27050.7
1034.48	27106
1037.37	27156.9
1040.26	27128.1
1043.15	27119.9
1046.05	27205.1
1048.94	27244
1051.83	27312.8
1054.73	27387.2
1057.62	27462.5
1060.51	27427.5
1063.4	27532.6
1066.3	27511.2
1069.19	27520.8
1072.08	27542.5
1074.97	27538.7
1077.87	27596.9
1080.76	27618.8
1083.65	27672.3
1086.55	27702.4
1089.44	27708.4
1092.33	27748.2
1095.22	27820.7
1098.12	27905.6
1101.01	28012.8
1103.9	27933.9
1106.79	28004.8
1109.69	28018.5
1112.58	28167.6
1115.47	28135.9
1118.37	28158.4
1121.26	28207.5
1124.15	28219.5
1127.04	28227.7
1129.94	28200
1132.83	28217.1
1135.72	28375.7
1138.61	28414.6
1141.51	28418.8
1144.4	28435
1147.29	28534.5
1150.18	28579
1153.08	28617.4
1155.97	28629.7
1158.86	28589
1161.76	28644.5
1164.65	28729.8
1167.54	28730.9
1170.43	28739.7
1173.33	28812.5
1176.22	28866.7
1179.11	28890.1
1182	28950.1
1184.9	28997.8
1187.79	29068.7
1190.68	29049.3
1193.58	29079.8
1196.47	29149
1199.36	29165.7
1202.25	29211.5
1205.15	29285.8
1208.04	29393
1210.93	29469.2
1213.82	29521.3
1216.72	29436.5
1219.61	29440.7
1222.5	29493.3
1225.39	29581
1228.29	29629.1
1231.18	29623.8
1234.07	29589.2
1236.97	29581.1
1239.86	29649.8
1242.75	29795.9
1245.64	29844.2
1248.54	29858
1251.43	29914.4
1254.32	30005.6
1257.21	30041.9
1260.11	30107.4
1263	30228.2
1265.89	30214.7
1268.79	30264.2
1271.68	30319.9
1274.57	30377.1
1277.46	30427.2
1280.36	30447.1
1283.25	30464.7
1286.14	30525.1
1289.03	30639
1291.93	30712.6
1294.82	30725
1297.71	30768
1300.61	30831.5
