Measurement: Raman, 780 nm, unoriented, Raman Data Processed
Mineral: Paulingite-Ca
Rruff sample: R120023
Ideal chemistry: (Ca,K,Na,Ba,[box])_10_(Si,Al)_42_O_84_34H_2_O
Locality: Vinařická hora hill, Kladno, Central Bohemian Region, Czech Republic
Source: Dr. Jürgen Wachsmuth
Description: Pale yellow rhombic dodecahedra
Raman shift (cm-1)	intensity
106.549	2816.21
109.924	2820.65
113.299	2825.97
116.674	2840.21
120.048	2834.15
123.423	2835.36
126.798	2837.55
130.173	2828.39
133.548	2812.86
136.923	2814.52
140.297	2813.95
143.672	2806.61
147.047	2806.43
150.422	2800.33
153.797	2799.97
157.171	2796.88
160.546	2788.07
163.921	2792.33
167.296	2777.1
170.671	2772.16
174.046	2763.83
177.42	2764.35
180.795	2752.16
184.17	2755.75
187.545	2741.78
190.92	2731.12
194.294	2731.24
197.669	2721.44
201.044	2711.2
204.419	2702.59
207.794	2703.46
211.168	2685.06
214.543	2680.46
217.918	2673.56
221.293	2667.47
224.668	2657.6
228.042	2649.84
231.417	2646.01
234.792	2634.05
238.167	2636.99
241.542	2614.42
244.917	2602.51
248.291	2605.13
251.666	2591.75
255.041	2576.4
258.416	2569.87
261.791	2571.09
265.166	2564.51
268.54	2551.82
271.915	2543.42
275.29	2534.49
278.665	2523.65
282.04	2518.78
285.414	2505.04
288.789	2502.46
292.164	2496.15
295.539	2480.12
298.914	2477.6
302.288	2463.1
305.663	2454.35
309.038	2444.84
312.413	2435.89
315.788	2431
319.163	2420.71
322.537	2408.61
325.912	2397.95
329.287	2399.11
332.662	2381.9
336.037	2382.42
339.411	2374.48
342.786	2360.53
346.161	2349.86
349.536	2354.26
352.911	2331.79
356.286	2329.85
359.66	2321.92
363.035	2305.4
366.41	2293.92
369.785	2296.65
373.16	2280.08
376.534	2271.8
379.909	2260.83
383.284	2259.88
386.659	2253.32
390.034	2240.94
393.409	2239.2
396.783	2227.77
400.158	2215.45
403.533	2216.87
406.908	2210.32
410.283	2198.48
413.658	2192.3
417.032	2195.81
420.407	2185.28
423.782	2179.97
427.157	2168.05
430.532	2159.45
433.906	2152.54
437.281	2139.93
440.656	2134.05
444.031	2130.48
447.406	2121.98
450.781	2111.59
454.155	2112.3
457.53	2105.94
460.905	2106.49
464.28	2102.42
467.654	2093.54
471.029	2085.27
474.404	2081.85
477.779	2073.19
481.154	2064.89
484.529	2057.71
487.903	2051
491.278	2038.08
494.653	2036.16
498.028	2017.78
501.403	1996.62
504.777	1983.66
508.152	1964.15
511.527	1947.25
514.902	1938.07
518.277	1925.51
521.652	1910.73
525.026	1898.92
528.401	1889.74
531.776	1887.77
535.151	1872.82
538.526	1870.26
541.9	1856.25
545.275	1844.51
548.65	1835.41
552.025	1834.8
555.4	1827.27
558.775	1821.43
562.149	1808.78
565.524	1799.91
568.899	1797.85
572.274	1784.65
575.649	1778.45
579.024	1770.24
582.398	1767.17
585.773	1766.81
589.148	1752.77
592.523	1745.11
595.898	1734.35
599.272	1728.66
602.647	1725.45
606.022	1714.96
609.397	1703.12
612.772	1697.29
616.146	1689.77
619.521	1687.13
622.896	1680.8
626.271	1674.41
629.646	1663.86
633.021	1660.89
636.395	1655.26
639.77	1643.38
643.145	1634
646.52	1630.94
649.895	1624.44
653.269	1614.56
656.644	1606.54
660.019	1598.78
663.394	1587.17
666.769	1584.3
670.144	1574.71
673.518	1567.48
676.893	1563.08
680.268	1561
683.643	1554.7
687.018	1542.55
690.393	1540.93
693.767	1531.96
697.142	1523.37
700.517	1521.28
703.892	1514.06
707.266	1508.55
710.641	1501.82
714.016	1496.89
717.391	1486.04
720.766	1481.42
724.141	1477.11
727.515	1468.78
730.89	1471.01
734.265	1457.57
737.64	1451.95
741.015	1441
744.389	1439.86
747.764	1435.41
751.139	1433.06
754.514	1418.29
757.889	1415.09
761.264	1408.92
764.638	1400.41
768.013	1400.77
771.388	1388.64
774.763	1387.87
778.138	1384.55
781.513	1376.3
784.887	1369.14
788.262	1362.01
791.637	1372.31
795.012	1360.19
798.387	1350.1
801.761	1349.7
805.136	1342.35
808.511	1339.54
811.886	1332.33
815.261	1325.79
818.635	1324.44
822.01	1318.8
825.385	1309.14
828.76	1306.57
832.135	1303.44
835.51	1293.82
838.884	1289.6
842.259	1286.99
845.634	1282.87
849.009	1272.29
852.384	1272.07
855.759	1265.58
859.133	1263.71
862.508	1254.52
865.883	1254.85
869.258	1246.13
872.633	1243.47
876.007	1237.78
879.382	1227
882.757	1221.32
886.132	1228.19
889.507	1213.52
892.881	1211.89
896.256	1201.76
899.631	1200.24
903.006	1189.53
906.381	1192.98
909.756	1187.37
913.13	1180.72
916.505	1178.49
919.88	1179.19
923.255	1166.12
926.63	1161.5
930.005	1157.65
933.379	1156.46
936.754	1156.69
940.129	1147.75
943.504	1142.5
946.879	1134.86
950.253	1135.22
953.628	1133.56
957.003	1129.95
960.378	1125.09
963.753	1120.08
967.127	1123.62
970.502	1115
973.877	1109.6
977.252	1104.71
980.627	1105.81
984.001	1104.97
987.376	1092.97
990.751	1094.31
994.126	1092.29
997.501	1086.9
1000.88	1087.47
1004.25	1078.76
1007.62	1077.58
1011	1073.07
1014.38	1073.12
1017.75	1073.68
1021.12	1063.56
1024.5	1061.58
1027.87	1062.11
1031.25	1059.31
1034.62	1055.21
1038	1054.31
1041.37	1044.17
1044.75	1043.78
1048.12	1043.12
1051.5	1038.09
1054.87	1041.08
1058.25	1051.49
1061.62	1040.93
1065	1027.53
1068.37	1022.52
1071.75	1020.88
1075.12	1018.09
1078.5	1013.17
1081.87	1013.17
1085.25	1010.79
1088.62	1008.96
1092	1005.5
1095.37	1012.12
1098.74	997.546
1102.12	999.558
1105.49	989.582
1108.87	994.969
1112.24	984.441
1115.62	984.6
1118.99	981.051
1122.37	977.599
1125.74	974.555
1129.12	976.622
1132.49	970.484
1135.87	972.209
1139.24	965.445
1142.62	964.291
1145.99	965.341
1149.37	958.125
1152.74	956.043
1156.12	953.552
1159.49	953.036
1162.87	950.265
1166.24	948.866
1169.62	951.984
1172.99	942.726
1176.37	943.841
1179.74	940.568
1183.12	934.404
1186.49	936.266
1189.87	931.46
1193.24	937.219
1196.62	928.303
1199.99	928.044
1203.37	923.677
1206.74	922.267
1210.11	917.171
1213.49	917.576
1216.86	916.84
1220.24	914.736
1223.61	909.468
1226.99	928.587
1230.36	911.636
1233.74	905.91
1237.11	906.668
1240.49	899.569
1243.86	899.442
1247.24	897.907
1250.61	892.384
1253.99	893.557
1257.36	892.276
1260.74	893.188
1264.11	895.541
1267.49	896.124
1270.86	891.752
1274.24	891.759
1277.61	894.296
1280.98	888.538
1284.36	892.38
