Measurement: Raman, 785 nm, unoriented, Raman Data Processed
Mineral: Pearceite
Rruff sample: R060689
Ideal chemistry: Cu(Ag,Cu)_6_Ag_9_As_2_S_11_
Locality: Clara mine, Rankach Valley, Oberwolfach, Wolfach, Black Forest, Baden-Württemberg, Germany
Source: Michael Scott
Description: Black tabular hexagonal prism in quartz. X-ray diffraction shows that this is pearceite-Tac.
Measured chemistry: Cu_1.00_(Ag_3.28_Cu_2.72_)_Σ=6.00_Ag_9.61_(As_1.63_Sb_0.37_)_Σ=2.00_S_11_  (Dark material is chalcopyrite)
Raman shift (cm-1)	intensity
207.344	0
210.237	31.816
213.13	69.383
216.022	76.303
218.915	208.984
221.808	166.863
224.7	245.704
227.593	294.628
230.486	265.001
233.378	344.582
236.271	402.423
239.164	522.238
242.057	421.405
244.949	452.977
247.842	459.657
250.735	505.97
253.627	590.394
256.52	689.046
259.413	720.346
262.306	770.894
265.198	741.385
268.091	795.151
270.984	821.67
273.876	764.367
276.769	755.616
279.662	787.714
282.554	754.06
285.447	808.743
288.34	689.37
291.233	687.281
294.125	664.265
297.018	703.871
299.911	846.188
302.803	1039.16
305.696	1308.68
308.589	1653.7
311.481	1943.76
314.374	2170.65
317.267	2301
320.159	2072.72
323.052	1786.74
325.945	1469.36
328.838	1263.28
331.73	1060.79
334.623	1019.72
337.516	819.783
340.408	697.653
343.301	602.429
346.194	608.147
349.086	670.847
351.979	646.269
354.872	675.369
357.765	732.353
360.657	846.664
363.55	1213.83
366.443	1544.55
369.335	1846.53
372.228	1883.26
375.121	1470.11
378.013	889.065
380.906	514.208
383.799	126.776
386.692	13.699
389.584	39.092
392.477	39.981
395.37	28.416
398.262	35.494
401.155	33.764
404.048	1.103
406.94	2.729
409.833	9.354
412.726	19.553
415.619	10.678
418.511	17.34
421.404	2.33
424.297	13.287
427.189	9.6
430.082	38.443
432.975	11.908
435.867	24.996
438.76	35.661
441.653	4.883
444.546	15.96
447.438	6.882
450.331	3.57
453.224	0.493
456.116	24.202
459.009	2.522
461.902	45.9
464.795	1.066
467.687	87.01
470.58	27.051
473.473	21.153
476.365	9.778
479.258	9.278
482.151	30.5
485.043	5.691
487.936	47.822
490.829	29.296
493.722	87.143
496.614	17.916
499.507	36.879
502.4	53.933
505.292	9.454
508.185	20.323
511.078	42.059
513.971	2.145
516.863	7.401
519.756	9.985
522.649	44.636
525.541	44.787
528.434	20.006
531.327	7.13
534.219	1.061
537.112	7.688
540.005	0.1
542.898	16.158
545.79	7.868
548.683	50.084
551.576	3.154
554.468	11.37
557.361	50.81
560.254	71.634
563.146	2.407
566.039	15.669
568.932	1.789
571.825	123.475
574.717	9.71
577.61	40.316
580.503	70.038
583.395	57.731
586.288	81.231
589.181	21.433
592.073	57.752
594.966	6.051
597.859	17.13
600.752	59.317
603.644	56.188
606.537	37.429
609.43	47.354
612.322	74.27
615.215	13.957
618.108	109.774
621	100.915
623.893	59.667
626.786	61.792
629.679	67.195
632.571	130.517
635.464	57.968
638.357	62.937
641.249	96.422
644.142	90.397
647.035	75.125
649.927	100.214
652.82	84.2
655.713	70.985
658.606	119.108
661.498	36.714
664.391	64.223
667.284	45.423
670.176	84.535
673.069	24.218
675.962	82.306
678.854	38.881
681.747	38.724
684.64	42.235
687.532	34.222
690.425	78.349
693.318	98.247
696.211	78.26
699.103	71.146
701.996	79.779
704.889	69.296
707.781	40.928
710.674	94.502
713.567	33.859
716.459	6.107
719.352	15.554
722.245	98.836
725.138	112.103
728.03	52.893
730.923	43.645
733.816	142.205
736.708	59.874
739.601	14.718
742.494	106.373
745.386	84.349
748.279	107.919
751.172	91.009
754.065	98.005
756.957	94.735
759.85	23.42
762.743	81.638
765.635	11.749
768.528	4.064
771.421	104.327
774.313	61.281
777.206	4.606
780.099	32.651
782.992	1.762
785.884	13.035
788.777	39.781
791.67	40.869
794.562	53.935
797.455	19.43
800.348	20.887
803.24	8.303
806.133	22.562
809.026	78.059
811.919	35.01
814.811	17.836
817.704	66.175
820.597	36.758
823.489	17.167
826.382	3.894
829.275	23.184
832.167	77.712
835.06	43.285
837.953	35.598
840.846	47.97
843.738	0.151
846.631	48.694
849.524	28.209
852.416	49.974
855.309	50.069
858.202	19.738
861.094	2.869
863.987	12.317
866.88	28.68
869.773	11.623
872.665	6.003
875.558	2.899
878.451	13.987
881.343	16.975
884.236	75.958
887.129	10.197
890.021	29.543
892.914	19.144
895.807	45.337
898.7	16.916
901.592	18.401
904.485	23.132
907.378	37.205
910.27	4.447
913.163	3.634
916.056	52.183
918.948	28.732
921.841	5.353
924.734	6.862
927.627	11.217
930.519	118.425
933.412	49.677
936.305	39.187
939.197	11.748
942.09	18.8
944.983	60.797
947.875	51.842
950.768	43.829
953.661	52.767
956.554	15.137
959.446	57.997
962.339	57.992
965.232	11.87
968.125	13.316
971.017	43.377
973.91	32.729
976.803	35.336
979.695	8.358
982.588	33.677
985.481	6.053
988.373	38.753
991.266	27.781
994.159	53.184
997.052	23.336
999.944	21.05
1002.84	25.175
1005.73	28.845
1008.62	32.777
1011.51	17.32
1014.41	12.442
1017.3	42.533
1020.19	10.435
1023.09	3.666
1025.98	20.749
1028.87	4.473
1031.76	16.807
1034.66	47.105
1037.55	71.221
1040.44	3.267
1043.34	44.58
1046.23	23.999
1049.12	25.91
1052.01	28.011
1054.9	20.408
1057.8	61.88
1060.69	20.271
1063.58	35.425
1066.48	6.614
1069.37	9.016
1072.26	1.02
1075.15	84.426
1078.05	19.893
1080.94	58.36
1083.83	62.96
1086.72	3.249
1089.62	28.189
1092.51	3.096
1095.4	38.885
1098.3	14.783
1101.19	0.431
1104.08	7.789
1106.97	8.519
1109.87	26.739
1112.76	61.131
1115.65	90.767
1118.55	37.667
1121.44	55.031
1124.33	44.296
1127.22	54.78
1130.12	6.211
1133.01	45.115
1135.9	80.939
1138.79	92.589
1141.69	99.804
1144.58	21.523
1147.47	41.313
1150.37	51.327
1153.26	98.276
1156.15	15.867
1159.04	38.613
1161.93	36.452
1164.83	10.336
1167.72	94.452
1170.61	14.637
1173.51	70.307
1176.4	24.82
1179.29	29.401
1182.18	10.551
1185.08	23.62
1187.97	47.715
1190.86	0.217
1193.76	6.101
1196.65	9.551
1199.54	1.043
1202.43	6.811
1205.33	44.795
1208.22	18.084
1211.11	27.235
1214	57.512
1216.9	45.075
1219.79	39.084
1222.68	94.696
1225.58	19.043
1228.47	3.628
1231.36	1.862
1234.25	20.367
1237.15	13.913
1240.04	58
1242.93	91.849
1245.82	2.642
1248.72	28.925
1251.61	12.927
1254.5	36.646
1257.39	43.888
1260.29	16.652
1263.18	18.89
1266.07	5.332
1268.96	3.348
