Measurement: Raman, 532 nm, unoriented, Raman Data Processed
Mineral: Pearceite
Rruff sample: R060689
Ideal chemistry: Cu(Ag,Cu)_6_Ag_9_As_2_S_11_
Locality: Clara mine, Rankach Valley, Oberwolfach, Wolfach, Black Forest, Baden-Württemberg, Germany
Source: Michael Scott
Description: Black tabular hexagonal prism in quartz. X-ray diffraction shows that this is pearceite-Tac.
Measured chemistry: Cu_1.00_(Ag_3.28_Cu_2.72_)_Σ=6.00_Ag_9.61_(As_1.63_Sb_0.37_)_Σ=2.00_S_11_  (Dark material is chalcopyrite)
Raman shift (cm-1)	intensity
135.504	0
138.397	27.9994
141.29	58.0641
144.182	26.681
147.075	42.5324
149.968	15.5585
152.861	27.5991
155.753	38.4087
158.646	42.1975
161.539	71.6184
164.431	57.3737
167.324	67.6207
170.217	24.5964
173.109	70.3825
176.002	28.9343
178.895	63.1088
181.788	37.5084
184.68	110.469
187.573	3.63037
190.466	80.014
193.358	56.1273
196.251	127.098
199.144	89.196
202.036	57.3535
204.929	70.6727
207.822	69.3856
210.714	66.2704
213.607	64.9164
216.5	14.3348
219.393	93.1163
222.285	68.9298
225.178	52.6641
228.071	23.8522
230.963	46.4937
233.856	22.1289
236.749	36.0306
239.641	19.4858
242.534	87.3654
245.427	94.3972
248.32	73.8373
251.212	73.4766
254.105	69.3972
256.998	8.30322
259.89	38.5383
262.783	28.134
265.676	54.4753
268.569	53.6178
271.461	25.9139
274.354	20.3451
277.247	30.8879
280.139	60.1243
283.032	38.0137
285.925	28.7313
288.817	28.5418
291.71	8.00952
294.603	39.4406
297.496	31.9382
300.388	14.1736
303.281	24.8193
306.174	54.3304
309.066	24.6444
311.959	23.2748
314.852	17.2356
317.744	10.6846
320.637	7.29248
323.53	34.7474
326.422	37.0287
329.315	2.8385
332.208	2.12292
335.1	25.9072
337.993	22.2366
340.886	22.2782
343.779	20.9777
346.671	25.8829
349.564	39.105
352.457	24.7375
355.349	10.8103
358.242	47.8889
361.135	58.9954
364.027	20.6348
366.92	43.0786
369.813	39.7765
372.706	55.7031
375.598	10.4033
378.491	35.5826
381.384	7.00928
384.276	23.5906
387.169	17.3938
390.062	30.0376
392.954	10.6746
395.847	4.86768
398.74	28.7864
401.633	40.3955
404.525	23.6477
407.418	21.4495
410.311	30.3925
413.203	15.411
416.096	26.352
418.989	57.0123
421.881	26.8635
424.774	121.683
427.667	19.126
430.56	33.2498
433.452	36.902
436.345	37.4785
439.238	51.1898
442.13	62.1127
445.023	30.4651
447.916	27.366
450.808	45.5305
453.701	50.499
456.594	12.788
459.487	32.1313
462.379	37.2609
465.272	10.0962
468.165	15.9042
471.057	33.6185
473.95	55.9768
476.843	22.8412
479.735	30.0778
482.628	32.4257
485.521	32.5138
488.414	38.5696
491.306	33.7981
494.199	21.1679
497.092	19.5535
499.984	18.1057
502.877	19.2019
505.77	5.40332
508.662	28.5219
511.555	14.5164
514.448	18.6433
517.341	39.77
520.233	27.0908
523.126	18.3332
526.019	6.59009
528.911	41.8926
531.804	36.8565
534.697	12.7334
537.589	18.9243
540.482	33.796
543.375	30.3584
546.268	11.6122
549.16	16.1132
552.053	11.9893
554.945	4.26807
557.838	14.9152
560.731	29.1754
563.624	38.404
566.516	29.6575
569.409	31.8015
572.302	25.0736
575.194	59.2441
578.087	16.9213
580.98	40.3261
583.872	14.2225
586.765	29.4229
589.658	50.2683
592.551	3.97058
595.443	42.4399
598.336	41.1754
601.229	28.6265
604.121	20.0769
607.014	25.3558
609.907	46.7203
612.799	33.906
615.692	45.4432
618.585	33.9757
621.477	16.7391
624.37	77.9553
627.263	54.71
630.156	39.0278
633.048	42.1407
635.941	18.0431
638.834	13.3457
641.726	21.2034
644.619	62.2311
647.512	78.9082
650.404	62.0196
653.297	65.1559
656.19	65.2443
659.083	51.3242
661.975	9.80017
664.868	39.1991
667.761	47.8274
670.653	27.6494
673.546	55.2645
676.439	53.1562
679.331	13.1094
682.224	60.3556
685.117	25.4034
688.01	68.4507
690.902	55.7568
693.795	31.6135
696.688	40.019
699.58	53.4088
702.473	28.3348
705.366	102.643
708.258	27.8976
711.151	1.02856
714.044	52.2307
716.937	64.2122
719.829	45.9015
722.722	34.1425
725.615	26.9523
728.507	23.6139
731.4	53.7988
734.293	41.2958
737.185	0.691162
740.078	21.6244
742.971	35.8519
745.864	1.49109
748.756	28.6848
751.649	22.2754
754.542	1.89111
757.434	17.2804
760.327	56.5851
763.22	19.845
766.112	109.172
769.005	46.6516
771.898	33.3052
774.791	28.073
777.683	4.02612
780.576	43.8339
783.469	12.5197
786.361	24.4992
789.254	89.4758
792.147	24.3231
795.039	23.6449
797.932	8.65796
800.825	71.2515
803.718	69.4049
806.61	19.1002
809.503	23.7798
812.396	46.3491
815.288	9.74719
818.181	33.9539
821.074	25.4254
823.966	47.6812
826.859	48.4153
829.752	16.0256
832.644	27.8789
835.537	14.0431
838.43	21.9276
841.323	13.452
844.215	45.0289
847.108	35.178
850.001	0.609009
852.893	39.442
855.786	25.6503
858.679	6.18787
861.571	33.5852
864.464	53.2904
867.357	27.6148
870.25	56.0239
873.142	17.3906
876.035	37.869
878.928	69.3667
881.82	43.9948
884.713	7.24963
887.606	31.5509
890.498	43.2517
893.391	68.5272
896.284	50.9468
899.177	53.7349
902.069	16.5981
904.962	31.2673
907.855	30.5452
910.747	12.6476
913.64	0.421143
916.533	20.9609
919.425	16.3549
922.318	31.4023
925.211	82.5319
928.104	52.2723
930.996	55.0493
933.889	25.9247
936.782	15.7095
939.674	21.3833
942.567	54.1621
945.46	10.5209
948.352	10.337
951.245	27.6311
954.138	26.6688
957.031	9.98242
959.923	36.009
962.816	38.5765
965.709	49.6993
968.601	57.116
971.494	37.0494
974.387	28.6853
977.279	13.6827
980.172	51.7141
983.065	17.6914
985.957	33.0605
988.85	11.4489
991.743	3.77026
994.635	8.85059
997.528	7.78027
1000.42	56.342
1003.31	27.1146
1006.21	19.3562
1009.1	19.856
1011.99	61.5869
1014.88	34.2335
1017.78	41.0748
1020.67	36.4026
1023.56	33.3108
1026.45	45.828
1029.35	20.032
1032.24	42.7363
1035.13	55.2567
1038.03	27.3728
1040.92	54.4459
1043.81	69.8888
1046.7	25.6421
1049.6	38.6813
1052.49	15.277
1055.38	83.0813
1058.28	29.8487
1061.17	47.6883
1064.06	27.5813
1066.95	25.6482
1069.85	16.3464
1072.74	15.9487
1075.63	3.30798
1078.52	28.7148
1081.42	39.3464
1084.31	40.8745
1087.2	23.6403
1090.09	62.9274
1092.99	60.1251
1095.88	61.8192
1098.77	29.4061
1101.66	53.2172
1104.56	46.0847
1107.45	47.4064
1110.34	44.8993
1113.24	45.2655
1116.13	55.1543
1119.02	5.55237
1121.91	37.672
1124.81	17.2308
1127.7	21.3406
1130.59	60.574
1133.48	19.5149
1136.38	59.5067
1139.27	78.8977
1142.16	26.0324
1145.06	31.037
1147.95	18.1577
1150.84	29.293
1153.73	6.09229
1156.63	61.6277
1159.52	49.3453
1162.41	66.0486
1165.31	51.1637
1168.2	35.8368
1171.09	71.7725
1173.98	70.4956
1176.88	15.1386
1179.77	33.8624
1182.66	28.5797
1185.55	24.5269
1188.45	67.0034
1191.34	52.9477
1194.23	48.2165
1197.12	46.6121
1200.02	49.0883
1202.91	35.5043
1205.8	6.42017
1208.69	35.9605
1211.59	14.1442
1214.48	35.8513
1217.37	36.3318
1220.27	68.6503
1223.16	6.26965
1226.05	4.43127
1228.94	15.0489
1231.84	65.9416
1234.73	17.981
1237.62	44.1205
1240.52	53.6278
1243.41	42.9518
1246.3	50.0717
1249.19	63.0325
1252.09	42.7073
1254.98	20.3776
1257.87	28.5875
1260.76	39.477
1263.66	2.78259
1266.55	36.4606
1269.44	2.78308
