Measurement: Raman, 532 nm, unoriented, Raman Data Processed
Mineral: Pectolite
Rruff sample: R120024
Ideal chemistry: NaCa_2_Si_3_O_8_(OH)
Locality: Eveslogchorr Mt., Khibiny Massif, Kola Peninsula, Murmanskaja Oblast', Russia
Source: Dr. JÃ¼rgen Wachsmuth
Description: Colorless elongated platy crystals
Raman shift (cm-1)	intensity
201.379	318172
204.272	326098
207.165	336418
210.057	348523
212.95	359193
215.843	367580
218.735	372795
221.628	377868
224.521	381708
227.413	386603
230.306	392916
233.199	398914
236.091	403722
238.984	406976
241.877	409543
244.77	412406
247.662	416842
250.555	420399
253.448	425013
256.34	429418
259.233	433499
262.126	436472
265.019	440533
267.911	444523
270.804	449239
273.697	454983
276.589	458862
279.482	462234
282.375	464299
285.267	464877
288.16	468563
291.053	473430
293.945	477937
296.838	481985
299.731	486475
302.624	490753
305.516	495789
308.409	500048
311.302	505585
314.194	510708
317.087	514398
319.98	516084
322.873	519151
325.765	520667
328.658	523514
331.551	526877
334.443	531810
337.336	537504
340.229	541381
343.121	542948
346.014	545404
348.907	549655
351.8	555370
354.692	560804
357.585	564646
360.478	569083
363.37	570927
366.263	574421
369.156	578603
372.048	583102
374.941	586666
377.834	590099
380.726	594001
383.619	597416
386.512	602622
389.405	606643
392.297	610423
395.19	612956
398.083	618514
400.975	622825
403.868	626799
406.761	632454
409.654	637111
412.546	642211
415.439	647282
418.332	649056
421.224	651640
424.117	655931
427.01	659654
429.902	666493
432.795	668786
435.688	672128
438.58	676977
441.473	681163
444.366	686853
447.259	692492
450.151	696198
453.044	699384
455.937	703125
458.829	709361
461.722	714594
464.615	718665
467.507	720485
470.4	725048
473.293	730040
476.186	734426
479.078	739449
481.971	744242
484.864	748818
487.756	752908
490.649	758955
493.542	763520
496.435	769662
499.327	774105
502.22	777122
505.113	780089
508.005	785856
510.898	790648
513.791	794429
516.683	796806
519.576	802797
522.469	808143
525.362	815029
528.254	821310
531.147	823365
534.04	827698
536.932	831021
539.825	835883
542.718	843174
545.611	846518
548.503	853747
551.396	857316
554.289	862560
557.181	864832
560.074	869752
562.967	873240
565.859	878030
568.752	881975
571.645	886221
574.538	890537
577.43	897275
580.323	903247
583.216	907005
586.108	911308
589.001	916275
591.894	922756
594.786	928113
597.679	929774
600.572	934805
603.465	938922
606.357	942061
609.25	949220
612.143	954211
615.035	959439
617.928	963468
620.821	968749
623.713	972380
626.606	976558
629.499	980932
632.391	988455
635.284	996055
638.177	1.0026e+06
641.07	1.00775e+06
643.962	1.01594e+06
646.855	1.0262e+06
649.748	1.03634e+06
652.64	1.04656e+06
655.533	1.05081e+06
658.426	1.04937e+06
661.318	1.05031e+06
664.211	1.05332e+06
667.104	1.05592e+06
669.997	1.06306e+06
672.889	1.06681e+06
675.782	1.07452e+06
678.675	1.07988e+06
681.567	1.09069e+06
684.46	1.09709e+06
687.353	1.10091e+06
690.245	1.10923e+06
693.138	1.11623e+06
696.031	1.12035e+06
698.924	1.1257e+06
701.816	1.1293e+06
704.709	1.13354e+06
707.602	1.1405e+06
710.494	1.14915e+06
713.387	1.15438e+06
716.28	1.15748e+06
719.173	1.16086e+06
722.065	1.16871e+06
724.958	1.17743e+06
727.851	1.18685e+06
730.743	1.19296e+06
733.636	1.19768e+06
736.529	1.20275e+06
739.421	1.20891e+06
742.314	1.21253e+06
745.207	1.21964e+06
748.1	1.2256e+06
750.992	1.23349e+06
753.885	1.24379e+06
756.778	1.25146e+06
759.67	1.2566e+06
762.563	1.26059e+06
765.456	1.26721e+06
768.348	1.27471e+06
771.241	1.28002e+06
774.134	1.28807e+06
777.027	1.2926e+06
779.919	1.30081e+06
782.812	1.30769e+06
785.705	1.31287e+06
788.597	1.31508e+06
791.49	1.32484e+06
794.383	1.33316e+06
797.275	1.33748e+06
800.168	1.34106e+06
803.061	1.34883e+06
805.954	1.35663e+06
808.846	1.36615e+06
811.739	1.37002e+06
814.632	1.37941e+06
817.524	1.38657e+06
820.417	1.39504e+06
823.31	1.40075e+06
826.202	1.40257e+06
829.095	1.40924e+06
831.988	1.41878e+06
834.881	1.42275e+06
837.773	1.42885e+06
840.666	1.43595e+06
843.559	1.44228e+06
846.451	1.44883e+06
849.344	1.45333e+06
852.237	1.46189e+06
855.13	1.47048e+06
858.022	1.4782e+06
860.915	1.48604e+06
863.808	1.49123e+06
866.7	1.49618e+06
869.593	1.502e+06
872.486	1.5107e+06
875.378	1.51964e+06
878.271	1.525e+06
881.164	1.52782e+06
884.057	1.53733e+06
886.949	1.54603e+06
889.842	1.5551e+06
892.735	1.55936e+06
895.627	1.5665e+06
898.52	1.57047e+06
901.413	1.57789e+06
904.305	1.58576e+06
907.198	1.59332e+06
910.091	1.6039e+06
912.984	1.60898e+06
915.876	1.61467e+06
918.769	1.62406e+06
921.662	1.62552e+06
924.554	1.6328e+06
927.447	1.63971e+06
930.34	1.64612e+06
933.232	1.64791e+06
936.125	1.65066e+06
939.018	1.65968e+06
941.91	1.66626e+06
944.803	1.67354e+06
947.696	1.67941e+06
950.589	1.68462e+06
953.481	1.6958e+06
956.374	1.69863e+06
959.267	1.70282e+06
962.159	1.7125e+06
965.052	1.72468e+06
967.945	1.73226e+06
970.837	1.73808e+06
973.73	1.74504e+06
976.623	1.75013e+06
979.516	1.76142e+06
982.408	1.76304e+06
985.301	1.76898e+06
988.194	1.77776e+06
991.086	1.78528e+06
993.979	1.7904e+06
996.872	1.79598e+06
999.764	1.79908e+06
1002.66	1.80662e+06
1005.55	1.81573e+06
1008.44	1.82377e+06
1011.34	1.83067e+06
1014.23	1.83643e+06
1017.12	1.84165e+06
1020.01	1.85467e+06
1022.91	1.86641e+06
1025.8	1.87059e+06
1028.69	1.87687e+06
1031.58	1.877e+06
1034.48	1.88667e+06
1037.37	1.89096e+06
1040.26	1.89212e+06
1043.15	1.89703e+06
1046.05	1.90344e+06
1048.94	1.91175e+06
1051.83	1.91676e+06
1054.73	1.92747e+06
1057.62	1.93725e+06
1060.51	1.93832e+06
1063.4	1.94723e+06
1066.3	1.9454e+06
1069.19	1.95299e+06
1072.08	1.95902e+06
1074.97	1.96276e+06
1077.87	1.96956e+06
1080.76	1.97432e+06
1083.65	1.98289e+06
1086.55	1.98699e+06
1089.44	1.99069e+06
1092.33	2.00045e+06
1095.22	2.00659e+06
1098.12	2.01826e+06
1101.01	2.02489e+06
1103.9	2.02443e+06
1106.79	2.03228e+06
1109.69	2.03532e+06
1112.58	2.0484e+06
1115.47	2.05135e+06
1118.37	2.0552e+06
1121.26	2.06224e+06
1124.15	2.06665e+06
1127.04	2.07002e+06
1129.94	2.07176e+06
1132.83	2.07444e+06
1135.72	2.08614e+06
1138.61	2.09465e+06
1141.51	2.09832e+06
1144.4	2.10324e+06
1147.29	2.11357e+06
1150.18	2.11682e+06
1153.08	2.12274e+06
1155.97	2.12546e+06
1158.86	2.12723e+06
1161.76	2.13298e+06
1164.65	2.14228e+06
1167.54	2.14494e+06
1170.43	2.14988e+06
1173.33	2.15542e+06
1176.22	2.16233e+06
1179.11	2.16716e+06
1182.01	2.17526e+06
1184.9	2.17905e+06
1187.79	2.18707e+06
1190.68	2.18613e+06
1193.58	2.19148e+06
1196.47	2.19504e+06
1199.36	2.2011e+06
1202.25	2.20722e+06
1205.15	2.21315e+06
1208.04	2.2226e+06
1210.93	2.22739e+06
1213.82	2.2337e+06
1216.72	2.22891e+06
1219.61	2.23201e+06
1222.5	2.23744e+06
1225.39	2.2452e+06
1228.29	2.2484e+06
1231.18	2.25062e+06
1234.07	2.25257e+06
1236.97	2.24825e+06
1239.86	2.25781e+06
1242.75	2.26936e+06
1245.64	2.27309e+06
1248.54	2.27483e+06
1251.43	2.28022e+06
1254.32	2.28644e+06
1257.21	2.28958e+06
1260.11	2.29648e+06
1263	2.30441e+06
1265.89	2.30372e+06
1268.79	2.30774e+06
1271.68	2.31264e+06
1274.57	2.31892e+06
1277.46	2.32498e+06
1280.36	2.32355e+06
1283.25	2.32796e+06
1286.14	2.33469e+06
1289.04	2.34092e+06
1291.93	2.34801e+06
1294.82	2.35063e+06
1297.71	2.35866e+06
1300.61	2.36061e+06
