Measurement: Raman, 532 nm, unoriented, Raman Data Processed
Mineral: Pectolite
Rruff sample: R060101
Ideal chemistry: NaCa_2_Si_3_O_8_(OH)
Locality: West Patterson, New Jersey, USA
Source: University of Arizona Mineral Museum
Description: Tufts of white acicular sprays
Measured chemistry: Na_1.02_Ca_2.00_Si_2.99_O_8_(OH)
Raman shift (cm-1)	intensity
150.528	0
153.421	279.367
156.314	91.0254
159.207	13.6021
162.099	42.9136
164.992	99.5513
167.885	125.356
170.777	312.039
173.67	437.534
176.563	615.879
179.455	634.546
182.348	564.011
185.241	343.783
188.133	384.127
191.026	306.558
193.919	283.033
196.812	202.349
199.704	197.71
202.597	150.261
205.49	93.1897
208.382	63.207
211.275	98.9396
214.168	10.0825
217.06	103.333
219.953	207.279
222.846	216.433
225.739	132.556
228.631	148.777
231.524	210.345
234.417	186.446
237.309	318.574
240.202	346.458
243.095	323.642
245.988	105.991
248.88	204.225
251.773	219.114
254.666	291.618
257.558	227.705
260.451	347.505
263.344	276.441
266.236	273.156
269.129	143.2
272.022	184.59
274.915	130.34
277.807	237.225
280.7	177.772
283.593	291.433
286.485	215.369
289.378	147.972
292.271	147.832
295.163	115.774
298.056	168.224
300.949	154.144
303.842	191.576
306.734	276.586
309.627	373.179
312.52	468.442
315.412	591.648
318.305	562.125
321.198	273.111
324.091	245.22
326.983	316.478
329.876	258.963
332.769	274.774
335.661	170.686
338.554	236.249
341.447	336.55
344.339	199.978
347.232	244.446
350.125	375.242
353.018	350.57
355.91	305.262
358.803	118.936
361.696	194.809
364.588	121.49
367.481	371.182
370.374	319.666
373.267	503.785
376.159	482.88
379.052	260.673
381.945	130.701
384.837	136.06
387.73	36.0301
390.623	57.9656
393.515	6.47211
396.408	3.09031
399.301	264.348
402.194	285.01
405.086	333.672
407.979	525.687
410.872	439.435
413.764	686.651
416.657	458.877
419.55	246.577
422.442	172.77
425.335	57.7987
428.228	52.5525
431.121	33.3212
434.013	46.3918
436.906	1.41782
439.799	29.0471
442.691	164.868
445.584	12.8658
448.477	21.16
451.37	28.1707
454.262	213.858
457.155	154.159
460.048	80.958
462.94	95.6753
465.833	66.7095
468.726	31.3443
471.618	136.034
474.511	13.6826
477.404	125.537
480.297	136.1
483.189	88.1486
486.082	9.72644
488.975	33.7207
491.867	29.6386
494.76	96.2419
497.653	299.255
500.546	298.67
503.438	290.785
506.331	184.223
509.224	39.233
512.116	176.326
515.009	132.41
517.902	174.166
520.794	167.511
523.687	46.108
526.58	12.561
529.472	258.976
532.365	60.412
535.258	110.123
538.151	82.2082
541.043	30.5821
543.936	210.169
546.829	178.049
549.721	387.158
552.614	222.786
555.507	232.61
558.399	298.523
561.292	213.457
564.185	123.708
567.078	95.8595
569.97	228.589
572.863	135.358
575.756	12.2712
578.649	14.0082
581.541	233.429
584.434	177.112
587.327	276.54
590.219	182.334
593.112	42.4096
596.005	121.33
598.897	142.302
601.79	1.6831
604.683	20.1752
607.576	172.985
610.468	169.777
613.361	37.7933
616.254	3.25218
619.146	39.4373
622.039	3.80525
624.932	33.1722
627.824	135.341
630.717	304.036
633.61	690.877
636.503	494.331
639.395	685.651
642.288	1042.8
645.181	1420.98
648.073	1859.55
650.966	1594.44
653.859	1359.75
656.751	820.549
659.644	423.825
662.537	630.308
665.43	290.015
668.322	20.2199
671.215	114.542
674.108	180.78
677	137.551
679.893	188.166
682.786	89.887
685.678	40.6766
688.571	75.9334
691.464	26.182
694.357	10.5869
697.249	415.291
700.142	356.319
703.035	163.62
705.927	254.535
708.82	27.5653
711.713	223.671
714.606	239.024
717.498	353.823
720.391	294.562
723.284	93.7181
726.176	242.502
729.069	125.097
731.962	399.625
734.855	280.917
737.747	147.289
740.64	328.093
743.533	193.139
746.425	238.475
749.318	24.6066
752.211	99.7319
755.103	53.5546
757.996	219.348
760.889	228.892
763.782	443.055
766.674	12.7582
769.567	128.133
772.46	7.01858
775.352	217.211
778.245	125.419
781.138	46.7592
784.03	477.429
786.923	166.497
789.816	13.9523
792.709	208.403
795.601	6.34031
798.494	39.9538
801.387	151.038
804.279	211.992
807.172	191.324
810.065	187.693
812.957	178.053
815.85	103.311
818.743	17.59
821.636	16.2168
824.528	192.238
827.421	233.113
830.314	383.939
833.206	105.526
836.099	142.06
838.992	265.707
841.885	201.912
844.777	309.812
847.67	19.8607
850.563	137.064
853.455	436.575
856.348	196.21
859.241	147.491
862.134	18.9882
865.026	162.691
867.919	50.4917
870.812	291.627
873.704	131.929
876.597	7.29989
879.49	304.771
882.382	330.926
885.275	251.137
888.168	406.481
891.061	22.0555
893.953	104.365
896.846	224.051
899.739	530.582
902.631	736.423
905.524	793.929
908.417	769.918
911.309	501.434
914.202	616.478
917.095	672.113
919.987	529.44
922.88	232.571
925.773	373.176
928.666	70.8871
931.558	33.2852
934.451	35.6284
937.344	167.93
940.236	52.9137
943.129	70.6697
946.022	407.888
948.915	103.497
951.807	344.012
954.7	246.623
957.593	81.0334
960.485	381.836
963.378	492.609
966.271	340.017
969.163	351.46
972.056	427.044
974.949	695.043
977.842	774.173
980.734	390.346
983.627	838.951
986.52	497.961
989.412	673.117
992.305	422.033
995.198	254.834
998.091	471.842
1000.98	727.369
1003.88	371.004
1006.77	227.146
1009.66	100.815
1012.55	330.296
1015.45	668.692
1018.34	545.284
1021.23	621.292
1024.12	711.636
1027.02	733.252
1029.91	430.075
1032.8	109.87
1035.7	203.789
1038.59	84.2259
1041.48	237.771
1044.37	41.9398
1047.27	170.035
1050.16	446.054
1053.05	281.898
1055.94	265.709
1058.84	124.892
1061.73	88.7576
1064.62	230.17
1067.52	237.6
1070.41	799.096
1073.3	384.633
1076.19	23.4222
1079.09	102.838
1081.98	20.222
1084.87	18.9448
1087.76	22.7556
1090.66	49.5056
1093.55	449.13
1096.44	28.8273
1099.34	126.074
1102.23	385.425
1105.12	127.843
1108.01	34.5058
1110.91	29.488
1113.8	296.334
1116.69	322.607
1119.58	137.522
1122.48	381.704
1125.37	226.858
1128.26	305.687
1131.15	333.129
1134.05	515.713
1136.94	179.591
1139.83	183.786
1142.73	289.976
1145.62	399.602
1148.51	470.398
1151.4	501.202
1154.3	224.724
1157.19	28.3723
1160.08	322.044
1162.97	222.96
1165.87	109.311
1168.76	115.184
1171.65	292.194
1174.55	542.701
1177.44	235.726
1180.33	290.998
1183.22	29.2301
1186.12	52.0321
1189.01	68.0678
1191.9	582.757
1194.79	206.747
1197.69	434.582
1200.58	323.08
1203.47	400.905
1206.37	618.756
1209.26	394.796
1212.15	346.53
1215.04	81.1866
1217.94	277.63
1220.83	290.858
1223.72	531.614
1226.61	157.486
1229.51	332.474
1232.4	361.436
1235.29	191.609
1238.18	241.173
1241.08	36.6492
1243.97	171.664
1246.86	57.8878
1249.76	185.258
1252.65	38.1491
1255.54	18.6869
1258.43	185.441
1261.33	175.718
1264.22	178.726
1267.11	583.496
1270.01	711.759
1272.9	504.259
1275.79	380.278
1278.68	546.388
1281.58	363.643
1284.47	31.5894
1287.36	144.631
1290.25	564.85
1293.15	358.399
1296.04	140.65
1298.93	0.522512
1301.82	0
