Measurement: Raman, 780 nm, unoriented, Raman Data Processed
Mineral: Pentlandite
Rruff sample: R060144
Ideal chemistry: (Ni,Fe)_9_S_8_
Locality: Worthington, Ontario, Canada
Source: University of Arizona Mineral Museum
Description: Bronze-white metallic massive
Measured chemistry: (Fe_4.80_Ni_4.12_Co_0.08_)_Î£=9_S_8_
Raman shift (cm-1)	intensity
119.988	0
123.363	2.04935
126.738	1.85699
130.113	4.19468
133.487	2.725
136.862	5.93519
140.237	4.57384
143.612	1.05028
146.987	1.6006
150.362	0.051443
153.736	0.258116
157.111	0.073339
160.486	0.310618
163.861	0.305106
167.236	1.45596
170.61	0.891425
173.985	0.041024
177.36	0.11666
180.735	1.39304
184.11	1.83042
187.484	1.87467
190.859	1.5827
194.234	1.85439
197.609	2.28113
200.984	2.47255
204.358	2.01298
207.733	2.36528
211.108	2.26859
214.483	2.04056
217.858	1.72246
221.233	1.79589
224.607	1.58963
227.982	1.48474
231.357	2.63575
234.732	2.59095
238.107	2.96659
241.482	2.88993
244.856	3.45716
248.231	3.23837
251.606	1.57057
254.981	1.31914
258.356	0.844653
261.73	0.296357
265.105	0.437067
268.48	0.068655
271.855	0.216068
275.23	0.44296
278.604	0.953103
281.979	1.62255
285.354	0.89512
288.729	0.033173
292.104	0.272602
295.478	0.018807
298.853	0.158183
302.228	0.063312
305.603	0.335058
308.978	0.166365
312.353	0.117969
315.727	0.607223
319.102	0.454263
322.477	0.129607
325.852	0.267392
329.227	0.711213
332.601	0.57143
335.976	0.000247
339.351	0.178681
342.726	0.774392
346.101	0.988805
349.476	0.85663
352.85	0.964816
356.225	0.750657
359.6	0.958432
362.975	0.92847
366.35	1.02023
369.724	1.03521
373.099	1.22004
376.474	0.773553
379.849	0.869127
383.224	0.82912
386.599	0.976648
389.973	0.680431
393.348	0.669096
396.723	0.014577
400.098	0.269469
403.473	0.551926
406.847	0.015679
410.222	0.094904
413.597	0.305009
416.972	0.42323
420.347	0.296463
423.721	0.000295
427.096	0.42472
430.471	0.699892
433.846	0.617302
437.221	0.778595
440.596	0.086627
443.97	0.215614
447.345	0.149331
450.72	0.417483
454.095	0.368539
457.47	0.576173
460.844	0.445567
464.219	0.533156
467.594	0.274368
470.969	1.11643
474.344	0.382625
477.719	0.72235
481.093	1.02582
484.468	0.97035
487.843	0.527006
491.218	0.891476
494.592	0.2624
497.967	0.338881
501.342	0.486894
504.717	0.081145
508.092	0.055319
511.467	0.736653
514.841	0.289092
518.216	0.19573
521.591	0.052101
524.966	0.44923
528.341	0.078022
531.716	1.02395
535.09	0.347624
538.465	0.976598
541.84	1.49534
545.215	1.43438
548.59	0.924802
551.964	0.991108
555.339	0.085279
558.714	0.676425
562.089	0.35715
565.464	0.304437
568.838	0.001618
572.213	0.182498
575.588	0.173158
578.963	0.006411
582.338	0.03211
585.712	0.597752
589.087	0.119417
592.462	0.191085
595.837	0.478014
599.212	0.452948
602.587	0.10636
605.961	0.701294
609.336	0.605786
612.711	0.546591
616.086	0.2025
619.461	0.223363
622.836	0.864816
626.21	0.51222
629.585	0.028907
632.96	0.559419
636.335	0.36433
639.71	0.64373
643.084	0.237625
646.459	0.59471
649.834	0.254472
653.209	0.786093
656.584	0.690788
659.958	0.659428
663.333	0.852254
666.708	1.05331
670.083	0.832566
673.458	0.485709
676.832	0.789672
680.207	0.280751
683.582	0.378424
686.957	0.80671
690.332	0.422071
693.707	0.468379
697.081	0.170564
700.456	0.160795
703.831	0.049534
707.206	0.80381
710.581	0.724521
713.955	0.440642
717.33	0.819075
720.705	0.720983
724.08	0.821281
727.455	0.528076
730.83	0.960597
734.204	0.969362
737.579	0.079691
740.954	0.209392
744.329	0.133115
747.704	0.585478
751.078	0.459634
754.453	0.175108
757.828	0.154418
761.203	0.070743
764.578	0.199437
767.952	0.043522
771.327	0.018124
774.702	0.384745
778.077	0.023854
781.452	0.076619
784.827	0.355095
788.201	0.303261
791.576	0.421614
794.951	0.369835
798.326	0.353203
801.701	0.62619
805.075	0.433738
808.45	0.428622
811.825	0.192782
815.2	0.573547
818.575	0.231802
821.949	0.386248
825.324	0.020962
828.699	0.489957
832.074	0.522735
835.449	0.618903
838.824	0.671625
842.198	0.486147
845.573	0.882653
848.948	0.411764
852.323	1.12294
855.698	0.841775
859.072	0.764183
862.447	0.469079
865.822	0.497937
869.197	1.08533
872.572	0.867767
875.947	0.824039
879.321	0.53265
882.696	0.819535
886.071	0.177768
889.446	0.276498
892.821	0.472331
896.195	0.203679
899.57	0.172457
902.945	0.116824
906.32	0.076559
909.695	0.209441
913.069	0.43468
916.444	0.07979
919.819	0.035672
923.194	0.336799
926.569	0.319208
929.944	0.085515
933.318	0.487071
936.693	0.049798
940.068	0.089371
943.443	0.304944
946.818	0.569135
950.192	0.483648
953.567	0.195099
956.942	0.673396
960.317	0.133839
963.692	0.105215
967.067	0.349234
970.441	0.216893
973.816	0.22599
977.191	0.44259
980.566	0.071781
983.941	0.301561
987.315	0.176134
990.69	0.136888
994.065	0.287529
997.44	0.357485
1000.82	0.257785
1004.19	0.137259
1007.56	0.009261
1010.94	0.182515
1014.31	0.167275
1017.69	0.389934
1021.06	0.679425
1024.44	0.465136
1027.81	0.693143
1031.19	0.752336
1034.56	0.0002
1037.94	0.788493
1041.31	0.419565
1044.69	0.093359
1048.06	0.494056
1051.44	0.559977
1054.81	0.476762
1058.19	0.50664
1061.56	0.427613
1064.94	0.271652
1068.31	0.175576
1071.69	0.591036
1075.06	0.176613
1078.43	0.399354
1081.81	0.354404
1085.18	0.450063
1088.56	0.544567
1091.93	0.506556
1095.31	0.017258
1098.68	0.546413
1102.06	0.00363
1105.43	0.056852
1108.81	0.054364
1112.18	0.040902
1115.56	0.067449
1118.93	0.383671
1122.31	0.077816
1125.68	0.535495
1129.06	0.606171
1132.43	0.655752
1135.81	0.405588
1139.18	0.558706
1142.56	0.324136
1145.93	0.070616
1149.31	0.540029
1152.68	0.277882
1156.06	0.887454
1159.43	0.961336
1162.81	0.203387
1166.18	0.249599
1169.56	0.757679
1172.93	0.770996
1176.31	0.63091
1179.68	0.614959
1183.06	0.152735
1186.43	0.019416
1189.8	0.87524
1193.18	0.14309
1196.55	1.05444
1199.93	0.748972
1203.3	0.504918
1206.68	0.443966
1210.05	0.744558
1213.43	0.081178
1216.8	0.978868
1220.18	0.615348
1223.55	0.200586
1226.93	0.219909
1230.3	0.862215
1233.68	0.060624
1237.05	0.69465
1240.43	0.174208
1243.8	0.101204
1247.18	0.88929
1250.55	0.578679
1253.93	0.297045
1257.3	0.230287
1260.67	0.262773
1264.05	0.238655
1267.42	0.395522
1270.8	0.018091
1274.17	0.563878
1277.55	0.668975
1280.92	0.434737
1284.3	0.278688
