Measurement: Raman, 780 nm, unoriented, Raman Data RAW
Mineral: Peprossiite-(Ce)
Rruff sample: R110144
Ideal chemistry: (Ce,La)Al_2_B_4_O_10.67_
Locality: Capranica, Vico Lake, Viterbo Province, Latium, Italy
Source: Donald M Doell
Description: Yellow platy crystals frozen in matrix
Raman shift (cm-1)	intensity
96.6748	17181.3
106.317	20343.1
115.96	21862.6
125.602	23784.8
135.244	25082.5
144.887	26729.8
154.529	29691.6
164.171	35683.6
173.814	43328.2
183.456	49746.9
193.098	51598.8
202.74	50389.6
212.383	49259.4
222.025	50145.2
231.667	51704.1
241.31	52398.7
250.952	52810.1
260.594	55107.8
270.237	58233.2
279.879	58676.8
289.522	55879.8
299.164	56351.7
308.806	64585.2
318.449	75609.9
328.091	86793.1
337.733	99782.8
347.375	110793
357.018	110716
366.66	102374
376.303	97213.8
385.945	98380.9
395.587	100921
405.229	99401
414.872	90442.5
424.514	77012.4
434.156	64002.9
443.799	54867.2
453.441	50294.9
463.084	49206.4
472.726	48536.4
482.368	46105.1
492.01	41061.8
501.653	35939.4
511.295	32746.3
520.938	31805.6
530.58	31737.8
540.222	31278.7
549.865	30175.8
559.507	29124.4
569.149	29140.3
578.791	30852.7
588.434	33360.6
598.076	35168.7
607.718	34469.5
617.361	31742.3
627.003	27730.6
636.645	23815.2
646.288	20576
655.93	18451.1
665.572	16976.4
675.215	16202.8
684.857	15784.5
694.5	15604.5
704.142	15510.8
713.784	15648.6
723.427	15894.3
733.069	16537.6
742.711	17216.1
752.354	17578.9
761.996	17575.1
771.638	17083.8
781.28	16123.7
790.923	14957
800.565	13867.6
810.207	13004.4
819.85	12235.6
829.492	11803
839.135	11592.7
848.777	11510.5
858.419	11637.9
868.062	11895.6
877.704	12186.3
887.346	12686.4
896.989	13232
906.631	13797.9
916.273	14268.8
925.915	14598.1
935.558	14699
945.2	14639.2
954.842	14511.4
964.485	14497.8
974.127	14719.3
983.769	15184.7
993.412	16075.5
1003.05	17179.6
1012.7	18644.8
1022.34	20447.1
1031.98	22788.4
1041.62	25709
1051.27	29101.2
1060.91	33397.8
1070.55	38455.8
1080.19	44302.9
1089.84	50600.8
1099.48	57395.7
1109.12	65057
1118.76	74923.5
1128.4	88226.8
1138.05	107335
1147.69	132416
1157.33	164783
1166.97	209114
1176.62	271479
1186.26	350094
1195.9	444759
1205.54	542304
1215.18	634174
1224.83	710039
1234.47	762508
1244.11	791081
1253.76	847379
1263.4	945043
1273.04	1.00135e+06
1282.68	980478
1292.32	950912
1301.97	1.01007e+06
1311.61	1.23219e+06
1321.25	1.55152e+06
1330.89	1.78065e+06
1340.54	1.8091e+06
1350.18	1.72215e+06
1359.82	1.67933e+06
1369.46	1.7085e+06
1379.11	1.7214e+06
1388.75	1.62955e+06
1398.39	1.41475e+06
1408.03	1.12979e+06
1417.67	854122
1427.32	652639
1436.96	539863
1446.6	495221
1456.24	491046
1465.89	503871
1475.53	505400
1485.17	478985
1494.81	424276
1504.45	361207
1514.1	310740
1523.74	283295
1533.38	287605
1543.03	338429
1552.67	451416
1562.31	626556
1571.95	814207
1581.59	941144
1591.24	952483
1600.88	858631
1610.52	710536
1620.16	561684
1629.81	442950
1639.45	363882
1649.09	316402
1658.73	291722
1668.38	281362
1678.02	282343
1687.66	290662
1697.3	302763
1706.94	316960
1716.59	327601
1726.23	331569
1735.87	328247
1745.51	319859
1755.16	306953
1764.8	294903
1774.44	283592
1784.08	271454
1793.72	255038
1803.37	232317
1813.01	207754
1822.65	185699
1832.3	168818
1841.94	158630
1851.58	154227
1861.22	155571
1870.86	159421
1880.51	164420
1890.15	166822
1899.79	163388
1909.43	152702
1919.08	135562
1928.72	115656
1938.36	95352.7
1948	77914.2
1957.64	64756.3
1967.29	54956.4
1976.93	48088.3
1986.57	43288.2
1996.21	39294.6
2005.86	35865.7
2015.5	32768.9
2025.14	29937.3
2034.78	27157.2
2044.43	24764.3
2054.07	22589.1
2063.71	20665.3
2073.35	18989.1
2082.99	17690.1
2092.64	16725
2102.28	15602
2111.92	14692.4
2121.57	14039.6
2131.21	13244
2140.85	12698.3
2150.49	12167.8
2160.13	11683.5
2169.78	11311
2179.42	10908.4
2189.06	10466.9
2198.7	10066.1
2208.35	9704.23
2217.99	9326.77
2227.63	8935.51
2237.27	8609.9
2246.91	8381.46
2256.56	8082.47
2266.2	7878.02
2275.84	7669.22
2285.48	7449.46
2295.13	7250.9
2304.77	7133.56
2314.41	7102.85
2324.05	6995.94
2333.7	6942.67
2343.34	6889.3
2352.98	6759.38
2362.62	6712.27
2372.26	6598.66
2381.91	6471.97
2391.55	6343.77
2401.19	6204.69
2410.84	6078.01
2420.48	5957.52
2430.12	5786.09
2439.76	5550.06
2449.4	5330.57
2459.05	5131.68
2468.69	4947.69
2478.33	4659.33
2487.97	4594.76
2497.62	4627.01
2507.26	4934.42
2516.9	5377.97
2526.54	6252.8
2536.18	7628.21
2545.83	8603.68
2555.47	8240.67
2565.11	6791.42
2574.75	5365.66
2584.4	4359.09
2594.04	3688.48
2603.68	3397.6
2613.32	3281.91
2622.97	3128.76
2632.61	3047.38
2642.25	2859.66
2651.89	2716.37
2661.53	2621.4
2671.18	2550.73
2680.82	2434.1
2690.46	2291.65
2700.11	2165.92
2709.75	2168.94
2719.39	2107.22
2729.03	2094.47
2738.67	2047.11
2748.32	2182.2
2757.96	2166.36
2767.6	2140.53
2777.24	2189.1
2786.89	2056.49
2796.53	2011.17
2806.17	1931.06
2815.81	1841.07
2825.45	1795.82
2835.1	1703.87
2844.74	1616.13
2854.38	1545.72
2864.02	1514.88
2873.67	1407.64
2883.31	1384.39
2892.95	1385.57
2902.59	1330.31
2912.24	1310.94
2921.88	1353.23
2931.52	1386.62
2941.16	1360.32
2950.8	1423
2960.45	1384.39
2970.09	1353.16
2979.73	1338.89
2989.38	1327.25
2999.02	1269.52
3008.66	1264.96
3018.3	1271.47
3027.94	1182.96
3037.59	1204.41
3047.23	1223.16
3056.87	1253.74
3066.51	1367.52
3076.16	1412.06
3085.8	1472.42
3095.44	1633.79
3105.08	1733.34
3114.72	1924.43
3124.37	2139.25
3134.01	2410.14
3143.65	2650.68
3153.29	3066.44
3162.94	3625.6
3172.58	4495.8
3182.22	5326.04
3191.86	6347.09
3201.51	7182.23
3211.15	8134.61
3220.79	8951.32
3230.43	9975.02
3240.07	11187.8
3249.72	12323.3
3259.36	13789.6
3269	15484
3278.64	16758.5
3288.29	17533.9
3297.93	18460.7
3307.57	19491.4
3317.21	20164
3326.86	19973.8
3336.5	18950.6
3346.14	18067.3
3355.78	17407
3365.43	16110.2
3375.07	14452
3384.71	12599.3
3394.35	10648.1
3403.99	8954.55
3413.64	7529.78
3423.28	6190.21
3432.92	5337.86
3442.56	4519.42
3452.21	4021.13
