Measurement: Raman, 785 nm, unoriented, Raman Data Processed
Mineral: Perryite
Rruff sample: R070052
Ideal chemistry: (Ni,Fe)_8_(Si,P)_3_
Locality: Mount Egerton meteorite, Gaskoyne River, Western Australia, Australia
Source: Michael Scott
Description: Gray metallic polished fragment embedded in epoxy
Raman shift (cm-1)	intensity
157.469	0
160.362	28.3093
163.254	10.1967
166.147	16.2781
169.04	48.914
171.932	117.747
174.825	81.8575
177.718	67.2996
180.61	8.16025
183.503	7.05994
186.396	33.024
189.288	62.3597
192.181	39.762
195.074	62.9954
197.967	22.7736
200.859	17.3601
203.752	24.06
206.645	10.2139
209.537	5.95779
212.43	1.70102
215.323	12.4717
218.215	1.73811
221.108	26.9026
224.001	23.6224
226.894	16.0566
229.786	19.4711
232.679	20.8312
235.572	36.9999
238.464	24.5966
241.357	29.193
244.25	31.1238
247.143	30.2566
250.035	29.9496
252.928	57.8585
255.821	37.7333
258.713	24.164
261.606	29.7046
264.499	37.1286
267.391	39.9119
270.284	35.8961
273.177	30.131
276.07	27.4952
278.962	47.1428
281.855	32.8278
284.748	28.5371
287.64	19.665
290.533	17.6791
293.426	16.5143
296.318	13.6867
299.211	6.96376
302.104	23.6804
304.997	9.52916
307.889	17.9805
310.782	13.1951
313.675	33.3468
316.567	22.1959
319.46	13.5552
322.353	7.76511
325.245	23.0636
328.138	6.73748
331.031	4.94634
333.923	16.0764
336.816	10.3189
339.709	12.6215
342.602	16.2933
345.494	15.6472
348.387	14.4425
351.28	11.8252
354.172	0.653374
357.065	21.6782
359.958	10.4061
362.851	20.8755
365.743	2.23621
368.636	4.20477
371.529	7.80959
374.421	17.946
377.314	19.1667
380.207	29.3616
383.099	8.74722
385.992	12.618
388.885	24.875
391.777	0.351631
394.67	0.614082
397.563	7.69859
400.456	13.1175
403.348	2.62407
406.241	3.49867
409.134	10.4018
412.026	13.8837
414.919	9.58495
417.812	17.8248
420.704	7.45277
423.597	20.4319
426.49	9.51267
429.383	6.56417
432.275	16.3772
435.168	13.035
438.061	11.6538
440.953	26.6236
443.846	11.3554
446.739	27.3108
449.632	16.2015
452.524	10.6475
455.417	3.28571
458.31	2.8943
461.202	16.845
464.095	18.1094
466.988	9.95609
469.88	11.3981
472.773	10.9378
475.666	6.83238
478.558	19.2317
481.451	5.91306
484.344	7.38362
487.237	14.822
490.129	7.43092
493.022	22.7487
495.915	15.8782
498.807	9.40466
501.7	27.8837
504.593	33.6427
507.486	5.4875
510.378	9.23372
513.271	14.6128
516.164	7.86407
519.056	10.543
521.949	12.6339
524.842	23.7013
527.734	4.74778
530.627	3.7091
533.52	8.78145
536.413	13.7979
539.305	19.783
542.198	19.7744
545.091	1.08533
547.983	13.1778
550.876	9.27921
553.769	35.6597
556.661	12.0766
559.554	13.1947
562.447	11.0399
565.34	18.2109
568.232	5.97835
571.125	11.2176
574.018	10.3857
576.91	2.48419
579.803	9.4335
582.696	2.18701
585.588	2.47661
588.481	19.4108
591.374	10.2025
594.266	13.4748
597.159	16.8692
600.052	12.1757
602.945	15.2159
605.837	26.4695
608.73	22.148
611.623	29.2823
614.515	14.7541
617.408	16.8091
620.301	14.431
623.193	15.5517
626.086	13.4128
628.979	7.46256
631.872	7.3262
634.764	22.4306
637.657	19.8736
640.55	10.3814
643.442	18.4007
646.335	0.109169
649.228	12.1832
652.12	32.835
655.013	2.47487
657.906	11.5559
660.799	11.7796
663.691	14.3469
666.584	2.65247
669.477	10.5693
672.369	12.6984
675.262	5.97533
678.155	28.344
681.048	11.9602
683.94	12.24
686.833	5.35651
689.726	11.375
692.618	3.99117
695.511	13.7752
698.404	14.6558
701.296	15.3152
704.189	4.96101
707.082	10.2062
709.975	21.2724
712.867	8.56786
715.76	13.0131
718.653	0.525841
721.545	5.52295
724.438	8.38864
727.331	16.7771
730.223	4.99184
733.116	8.36273
736.009	24.585
738.902	5.51962
741.794	14.7034
744.687	13.7678
747.58	18.6577
750.472	11.9098
753.365	18.7314
756.258	12.8679
759.15	9.31416
762.043	9.35004
764.936	9.94405
767.828	7.36475
770.721	12.5956
773.614	14.7591
776.507	19.8943
779.399	10.9591
782.292	1.52706
785.185	9.63734
788.077	1.21376
790.97	18.5164
793.863	8.60272
796.755	14.6032
799.648	11.22
802.541	4.52143
805.434	10.1799
808.326	1.90726
811.219	9.1661
814.112	10.9451
817.004	2.38929
819.897	11.6295
822.79	20.6904
825.683	19.1767
828.575	11.2919
831.468	16.282
834.361	8.02138
837.253	14.5885
840.146	10.7687
843.039	14.1464
845.931	18.8333
848.824	2.47454
851.717	6.51605
854.61	1.06682
857.502	20.7709
860.395	21.1525
863.288	17.2993
866.18	23.335
869.073	17.2585
871.966	8.61955
874.858	17.4293
877.751	17.4471
880.644	28.9538
883.537	1.20099
886.429	13.1964
889.322	5.80784
892.215	9.46731
895.107	18.3438
898	14.9601
900.893	4.19466
903.785	21.9654
906.678	3.47646
909.571	3.05331
912.463	31.1365
915.356	16.1001
918.249	5.42935
921.142	7.46647
924.034	17.4357
926.927	32.0837
929.82	19.738
932.712	11.6202
935.605	29.6506
938.498	19.2865
941.39	4.61524
944.283	14.4605
947.176	18.5058
950.069	11.3248
952.961	15.0254
955.854	28.0189
958.747	11.147
961.639	10.9437
964.532	11.1224
967.425	28.6025
970.317	1.94836
973.21	12.4261
976.103	24.3366
978.996	18.8406
981.888	23.0928
984.781	12.2323
987.674	17.1758
990.566	23.9216
993.459	18.5521
996.352	12.8561
999.245	19.4385
1002.14	16.7042
1005.03	14.0242
1007.92	40.5939
1010.82	7.49111
1013.71	29.1513
1016.6	3.82886
1019.49	8.24132
1022.39	12.1584
1025.28	18.4356
1028.17	5.42232
1031.06	20.2161
1033.96	0.845207
1036.85	7.83584
1039.74	12.5153
1042.63	17.2021
1045.53	15.2528
1048.42	17.0196
1051.31	3.88782
1054.21	3.02023
1057.1	5.02323
1059.99	18.2587
1062.88	12.339
1065.78	7.55787
1068.67	24.1183
1071.56	2.90821
1074.45	6.7891
1077.35	3.77744
1080.24	20.2081
1083.13	23.3505
1086.03	19.9461
1088.92	15.8467
1091.81	17.5731
1094.7	3.1225
1097.6	9.36053
1100.49	14.6936
1103.38	13.2817
1106.27	26.4669
1109.17	16.2121
1112.06	4.48408
1114.95	10.0936
1117.85	3.56928
1120.74	10.0134
1123.63	5.39729
1126.52	26.3552
1129.42	14.7707
1132.31	13.5786
1135.2	17.7561
1138.09	23.9539
1140.99	6.63237
1143.88	34.3989
1146.77	9.48809
1149.66	3.24889
1152.56	21.8179
1155.45	14.2033
1158.34	28.4852
1161.24	1.01661
1164.13	6.5084
1167.02	19.1807
1169.91	22.3354
1172.81	0.191177
1175.7	24.0576
1178.59	6.63718
1181.48	13.8053
1184.38	19.3218
1187.27	13.6388
1190.16	3.43607
1193.06	21.4977
1195.95	22.0751
1198.84	14.8724
1201.73	32.0243
1204.63	24.7697
1207.52	28.4739
1210.41	40.5736
1213.3	0.358223
1216.2	9.15732
1219.09	25.0462
1221.98	24.6748
1224.88	11.8614
1227.77	39.1023
1230.66	0.744881
1233.55	34.3959
1236.45	15.9889
1239.34	22.7808
1242.23	4.68361
