Measurement: Raman, 532 nm, unoriented, Raman Data Processed
Mineral: Perryite
Rruff sample: R070052
Ideal chemistry: (Ni,Fe)_8_(Si,P)_3_
Locality: Mount Egerton meteorite, Gaskoyne River, Western Australia, Australia
Source: Michael Scott
Description: Gray metallic polished fragment embedded in epoxy
Raman shift (cm-1)	intensity
137.165	0
140.54	22.4091
143.915	0.728073
147.29	22.8504
150.664	14.8587
154.039	13.5827
157.414	0.009911
160.789	1.11924
164.164	16.5244
167.538	0.057884
170.913	21.1528
174.288	8.31898
177.663	20.0855
181.038	30.749
184.412	15.3258
187.787	25.3095
191.162	35.5074
194.537	12.4745
197.912	26.1953
201.286	21.5093
204.661	24.7874
208.036	17.6422
211.411	10.361
214.786	17.4474
218.161	8.17348
221.535	3.32085
224.91	12.6565
228.285	0.041245
231.66	15.6283
235.035	18.7863
238.41	3.63558
241.784	15.009
245.159	18.4375
248.534	5.14841
251.909	2.07925
255.284	8.64357
258.658	18.648
262.033	9.64695
265.408	21.4137
268.783	3.05231
272.158	25.815
275.532	19.4164
278.907	19.043
282.282	7.45471
285.657	9.37337
289.032	8.6475
292.406	10.4511
295.781	3.22632
299.156	11.3509
302.531	21.4882
305.906	7.34353
309.281	13.9866
312.655	6.05002
316.03	13.8973
319.405	17.5699
322.78	11.8649
326.155	16.4386
329.529	20.9953
332.904	12.7723
336.279	8.18295
339.654	8.94605
343.029	8.96944
346.404	13.4351
349.778	2.96997
353.153	18.8777
356.528	6.67571
359.903	2.81495
363.278	12.5138
366.652	25.4264
370.027	9.26758
373.402	8.41481
376.777	16.9322
380.152	22.7743
383.526	9.20003
386.901	14.923
390.276	5.99006
393.651	16.8224
397.026	7.17074
400.401	0.387604
403.775	0.514542
407.15	24.694
410.525	10.613
413.9	19.1668
417.275	6.4031
420.649	9.11355
424.024	6.92707
427.399	21.6272
430.774	17.2695
434.149	7.17079
437.524	7.38031
440.898	15.4656
444.273	16.7799
447.648	16.9688
451.023	14.1804
454.398	11.4547
457.772	11.5057
461.147	17.3056
464.522	13.2901
467.897	17.5022
471.272	14.1569
474.647	16.4132
478.021	9.81381
481.396	18.3902
484.771	19.4059
488.146	2.54375
491.521	10.4276
494.895	27.4694
498.27	18.5107
501.645	4.18018
505.02	8.58102
508.395	5.8047
511.769	9.82175
515.144	17.6105
518.519	8.24963
521.894	13.9248
525.269	10.7307
528.644	3.31047
532.018	13.8876
535.393	4.33249
538.768	14.6878
542.143	13.0182
545.518	12.3409
548.892	6.99182
552.267	3.65677
555.642	15.3292
559.017	24.8209
562.392	0.394802
565.766	12.3029
569.141	9.75008
572.516	5.56507
575.891	11.3619
579.266	21.3892
582.64	9.71004
586.015	13.95
589.39	19.1543
592.765	11.1576
596.14	8.09496
599.514	19.9546
602.889	0.790119
606.264	5.82639
609.639	11.7024
613.014	22.1447
616.389	3.44029
619.763	13.6958
623.138	4.23538
626.513	15.6373
629.888	14.2276
633.263	21.5063
636.638	0.309238
640.012	5.90845
643.387	8.20776
646.762	18.4059
650.137	7.86077
653.512	21.666
656.886	18.3118
660.261	19.5931
663.636	13.976
667.011	20.9745
670.386	2.97194
673.76	14.0783
677.135	16.9566
680.51	7.83341
683.885	11.1723
687.26	4.68732
690.635	15.5383
694.009	14.8963
697.384	8.80862
700.759	17.2343
704.134	0.416019
707.509	24.2652
710.883	0.9552
714.258	19.3222
717.633	3.7381
721.008	7.24733
724.383	3.8318
727.758	1.07217
731.132	6.68093
734.507	17.5579
737.882	10.7669
741.257	16.3835
744.631	0.629147
748.006	19.0228
751.381	10.4641
754.756	0.416683
758.131	13.5356
761.506	2.29097
764.88	8.36309
768.255	15.1857
771.63	9.28398
775.005	0.985783
778.38	10.168
781.755	1.05811
785.129	23.8261
788.504	14.4927
791.879	21.455
795.254	23.2666
798.629	18.7713
802.003	16.8917
805.378	19.087
808.753	13.6714
812.128	4.23784
815.503	7.60009
818.877	22.234
822.252	13.1721
825.627	10.9526
829.002	13.0713
832.377	15.5087
835.751	14.3352
839.126	11.5412
842.501	7.05017
845.876	3.61731
849.251	15.6473
852.626	4.05037
856	7.65353
859.375	4.59736
862.75	4.10366
866.125	15.7377
869.5	7.92535
872.875	21.0924
876.249	7.8296
879.624	5.95725
882.999	16.5812
886.374	13.007
889.749	17.8911
893.123	9.89933
896.498	10.1189
899.873	4.99307
903.248	13.5822
906.623	0.314266
909.997	1.37384
913.372	6.62548
916.747	13.4504
920.122	4.72399
923.497	5.12837
926.871	12.9696
930.246	17.8943
933.621	10.1219
936.996	16.6852
940.371	13.6396
943.745	13.7777
947.12	15.7172
950.495	8.20049
953.87	4.91596
957.245	9.88582
960.62	17.3873
963.994	2.71009
967.369	19.0429
970.744	4.9529
974.119	15.7107
977.494	17.8746
980.869	26.7678
984.243	14.3641
987.618	21.2019
990.993	20.2378
994.368	14.9666
997.743	9.65295
1001.12	19.7471
1004.49	2.3111
1007.87	15.6736
1011.24	9.2546
1014.62	2.51118
1017.99	23.3352
1021.37	12.3298
1024.74	14.209
1028.12	13.6005
1031.49	22.5385
1034.87	7.23559
1038.24	12.8145
1041.62	8.47572
1044.99	4.39922
1048.37	18.309
1051.74	18.2272
1055.11	21.6251
1058.49	18.2936
1061.86	2.21804
1065.24	8.40596
1068.61	1.6377
1071.99	7.18041
1075.36	14.6631
1078.74	19.9718
1082.11	0.043106
1085.49	10.9149
1088.86	11.1022
1092.24	18.1411
1095.61	11.0229
1098.99	2.9844
1102.36	14.136
1105.74	15.6788
1109.11	11.0862
1112.49	16.604
1115.86	18.3509
1119.24	25.1902
1122.61	13.2788
1125.98	4.38039
1129.36	12.3919
1132.73	12.2415
1136.11	10.5529
1139.48	2.55886
1142.86	13.2798
1146.23	14.659
1149.61	19.0497
1152.98	14.2928
1156.36	0.228485
1159.73	6.13653
1163.11	1.97275
1166.48	16.6187
1169.86	4.77045
1173.23	8.2899
1176.61	11.7571
1179.98	4.04929
1183.36	10.4357
1186.73	1.69925
1190.11	11.9278
1193.48	16.6154
1196.86	0.162861
1200.23	0.659752
1203.61	12.79
1206.98	14.7064
1210.36	13.5796
1213.73	22.2172
1217.11	12.8813
1220.48	13.2656
1223.86	14.47
1227.23	21.5875
1230.61	13.3531
1233.98	20.4325
1237.35	19.1372
1240.73	23.2018
1244.1	13.173
1247.48	21.7434
1250.85	5.93086
1254.23	8.54896
1257.6	17.7816
1260.98	2.52597
1264.35	21.4884
1267.73	10.9402
1271.1	8.11442
1274.48	18.0792
1277.85	8.89392
1281.23	14.5845
1284.6	1.91405
1287.98	9.41063
1291.35	23.7414
1294.73	21.5463
1298.1	15.9921
1301.48	18.5835
1304.85	24.5231
1308.22	20.0897
1311.6	10.2834
1314.97	13.2925
