Measurement: Raman, 780 nm, unoriented, Raman Data Processed
Mineral: Petersenite-(Ce)
Rruff sample: R120035
Ideal chemistry: Na_4_Ce^3+^_2_(CO_3_)_5_
Locality: Mont Saint-Hilaire, Rouville RCM, Montérégie, Québec, Canada
Source: Donald Doell
Description: Pale yellow or pink (depending on light source) hexagonal prismatic crystals, associated with albite and aegirine.
Measured chemistry: (Na_2.92_K_0.03_Ca_0.58_Ba_0.24_Sr_0.22_)(Ce_1.07_La_0.51_Nd_0.31_Pr_0.12_)(CO_3_)_5_
Raman shift (cm-1)	intensity
94.0141	14172.8
97.3889	14327.3
100.764	14141.6
104.138	14271.3
107.513	14591.4
110.888	14806.8
114.263	15243.5
117.638	15377.3
121.013	15682
124.388	15798.4
127.762	16197
131.137	16458.7
134.512	16572.8
137.887	16992.8
141.262	17337
144.636	18165.3
148.011	18516.7
151.386	19169.5
154.761	20055
158.136	20819.9
161.51	21784.2
164.885	22897
168.26	23823.7
171.635	24929.3
175.01	26474.1
178.385	28094.9
181.759	29999.9
185.134	32242.9
188.509	34862.9
191.884	38182.9
195.259	41602.2
198.633	45271.7
202.008	49552.2
205.383	54327.6
208.758	59373.3
212.133	64467
215.507	69433.7
218.882	74024.9
222.257	78599.4
225.632	82622.1
229.007	86262.9
232.382	89237.1
235.756	91817
239.131	94341.7
242.506	96039.9
245.881	98190
249.256	101005
252.631	104094
256.005	107691
259.38	112701
262.755	119147
266.13	126846
269.505	134504
272.879	141807
276.254	147349
279.629	150712
283.004	152208
286.379	151544
289.753	151249
293.128	149426
296.503	147902
299.878	144792
303.253	140899
306.628	137949
310.002	135646
313.377	134711
316.752	136223
320.127	138792
323.502	143169
326.877	148341
330.251	154271
333.626	159421
337.001	164916
340.376	168738
343.75	171366
347.125	172922
350.5	172242
353.875	169004
357.25	164529
360.625	158021
364	151007
367.374	143852
370.749	137457
374.124	130744
377.499	125142
380.873	120205
384.248	115952
387.623	112780
390.998	110008
394.373	107668
397.748	105940
401.122	104212
404.497	103193
407.872	101617
411.247	100195
414.622	98387
417.997	96161.9
421.371	93982.4
424.746	91185.1
428.121	88308
431.496	85444.1
434.871	82730.2
438.245	79742.7
441.62	77300
444.995	74560.7
448.37	72057.4
451.745	69791.1
455.12	67767
458.494	65486.4
461.869	63978.4
465.244	62078.7
468.619	60421.7
471.994	59074.1
475.368	57601
478.743	55710.2
482.118	54287.5
485.493	52455.3
488.868	50947.5
492.243	49482.2
495.617	48073.4
498.992	46571.6
502.367	45208.9
505.742	44106.2
509.117	43207.9
512.491	42330.3
515.866	41504.9
519.241	40602.1
522.616	40038.5
525.991	39415.3
529.365	39376.1
532.74	39131.8
536.115	39078.6
539.49	39190.2
542.865	39016.1
546.24	39479.6
549.614	39841.4
552.989	40593.1
556.364	41404.3
559.739	42338.6
563.114	43431.7
566.489	44605.1
569.863	46048.2
573.238	47425.8
576.613	49235.9
579.988	50783.1
583.362	52233.3
586.737	53831.5
590.112	54703.2
593.487	55457.4
596.862	55751.6
600.237	55711.1
603.611	55561.7
606.986	54954.4
610.361	54194.6
613.736	53605.4
617.111	52894.4
620.486	52268.3
623.86	52024.3
627.235	51921.7
630.61	52119.4
633.985	52558.1
637.36	53072.3
640.734	53930.3
644.109	54574.1
647.484	55538.3
650.859	55814
654.234	55934.5
657.609	55429.7
660.983	54776.6
664.358	53739
667.733	52184.2
671.108	50479.3
674.483	48769.7
677.857	46840.8
681.232	45266.8
684.607	43434.1
687.982	41734.5
691.357	40127.2
694.731	38727.8
698.106	37237.2
701.481	36075.7
704.856	34733
708.231	33656.4
711.606	32566.9
714.98	31455.3
718.355	30402.6
721.73	29289.8
725.105	28439.8
728.48	27321.3
731.855	26425.5
735.229	25290.5
738.604	24330.9
741.979	23260.1
745.354	22289.5
748.729	21443.3
752.103	20446.9
755.478	19415.3
758.853	18637.7
762.228	17684.6
765.603	17077.4
768.977	16378
772.352	15709.1
775.727	15270.3
779.102	14750.2
782.477	14347.8
785.852	13846.4
789.226	13487.1
792.601	13186.2
795.976	12876
799.351	12670.5
802.726	12355.7
806.101	12156.4
809.475	11890.9
812.85	11719.6
816.225	11550.7
819.6	11497.9
822.975	11383.4
826.349	11223.4
829.724	11037
833.099	10976.5
836.474	10859.8
839.849	10833.5
843.223	10803.2
846.598	10655.7
849.973	10586.1
853.348	10645.9
856.723	10637.5
860.097	10586.1
863.472	10442.4
866.847	10455.9
870.222	10484.1
873.597	10532.2
876.972	10487.2
880.346	10482
883.721	10599.1
887.096	10573.3
890.471	10633.4
893.846	10676.8
897.221	10785.9
900.595	10894
903.97	10962.8
907.345	11148.9
910.72	11335.4
914.095	11504.3
917.469	11674.9
920.844	11929.4
924.219	12154.6
927.594	12363.3
930.969	12681.4
934.343	13080.9
937.718	13319.1
941.093	13676.4
944.468	13918.6
947.843	14410.1
951.218	14772.5
954.592	15278.8
957.967	15774.7
961.342	16231.8
964.717	16963
968.092	17560.1
971.466	18164.9
974.841	18884.1
978.216	19773.2
981.591	20646.7
984.966	21603.7
988.341	22570.5
991.715	23525.6
995.09	24698.3
998.465	25871.7
1001.84	26913
1005.22	28280.7
1008.59	29490.1
1011.96	30763.8
1015.34	32217.9
1018.71	33654.3
1022.09	35213.1
1025.46	36936.7
1028.84	38415.2
1032.21	40715.4
1035.59	42621.5
1038.96	44772.7
1042.34	46823.3
1045.71	49018.3
1049.09	51442.1
1052.46	53849.2
1055.84	56416.9
1059.21	59213.7
1062.59	62065
1065.96	64953.3
1069.34	67915
1072.71	71048.2
1076.09	74294.1
1079.46	76989.4
1082.84	80118.7
1086.21	83663
1089.59	87151.6
1092.96	91100
1096.34	94868.4
1099.71	98833.8
1103.08	103106
1106.46	107630
1109.83	112524
1113.21	116815
1116.58	121786
1119.96	126971
1123.33	132484
1126.71	137841
1130.08	143787
1133.46	149695
1136.83	155870
1140.21	162080
1143.58	168403
1146.96	175918
1150.33	182907
1153.71	189977
1157.08	198399
1160.46	206373
1163.83	215733
1167.21	224656
1170.58	234617
1173.96	245128
1177.33	255406
1180.7	267618
1184.08	279768
1187.45	292871
1190.83	307916
1194.2	323592
1197.58	341437
1200.95	359677
1204.33	381612
1207.7	405870
1211.08	434291
1214.45	465624
1217.83	501870
1221.2	543068
1224.58	590841
1227.95	647926
1231.33	712080
1234.7	789236
1238.08	875471
1241.45	972723
1244.83	1.08877e+06
1248.2	1.21807e+06
1251.58	1.35773e+06
1254.95	1.50465e+06
1258.33	1.65266e+06
1261.7	1.79522e+06
1265.08	1.91714e+06
1268.45	2.00625e+06
1271.83	2.05842e+06
1275.2	2.07613e+06
1278.58	2.07566e+06
1281.95	2.06326e+06
1285.32	2.0587e+06
