Measurement: Raman, 532 nm, unoriented, Raman Data Processed
Mineral: Petzite
Rruff sample: R070254
Ideal chemistry: Ag_3_AuTe_2_
Locality: Red Jacket mine, Baker County, Oregon, USA
Source: Michael Scott
Description: Steel grey metallic fragments with subconchoidal fracture, sample used as the standard for the ICDD powder diffraction file
Measured chemistry: Ag_3.00_Au_1.00_Te_2.00_ ; = lighter phase. The darker phase is: Ag_3.00_(Au_0.99_Cu_0.01_)_Î£=1_Te_2.00_
Raman shift (cm-1)	intensity
143.394	0
146.769	2.77216
150.144	27.0164
153.519	35.4566
156.894	44.4311
160.268	25.2809
163.643	47.7857
167.018	29.1312
170.393	31.2688
173.768	25.5712
177.143	9.43839
180.517	25.8955
183.892	3.74808
187.267	7.90942
190.642	15.3179
194.017	25.6851
197.391	32.0082
200.766	25.7012
204.141	0.729797
207.516	28.5764
210.891	1.15653
214.266	20.7938
217.64	23.8274
221.015	39.6839
224.39	29.5665
227.765	39.9995
231.14	19.8292
234.514	24.1709
237.889	39.223
241.264	30.97
244.639	24.1785
248.014	30.1753
251.388	24.261
254.763	24.3596
258.138	36.4605
261.513	35.8496
264.888	10.5923
268.263	12.0468
271.637	20.3986
275.012	6.1962
278.387	21.1371
281.762	7.00259
285.137	20.0367
288.512	12.6141
291.886	6.22488
295.261	30.4163
298.636	22.0868
302.011	36.9179
305.386	24.6006
308.76	43.5537
312.135	11.9771
315.51	41.2129
318.885	7.84717
322.26	39.7174
325.635	15.7243
329.009	19.8594
332.384	25.5619
335.759	8.263
339.134	25.7141
342.509	22.5538
345.883	6.78076
349.258	23.6174
352.633	6.07419
356.008	13.9809
359.383	18.4756
362.757	9.00708
366.132	3.66785
369.507	20.57
372.882	31.9363
376.257	10.5011
379.632	3.42145
383.006	30.3478
386.381	27.6918
389.756	25.1702
393.131	27.1191
396.506	29.2898
399.88	8.547
403.255	22.3052
406.63	5.4202
410.005	2.771
413.38	10.7329
416.755	1.00198
420.129	12.0686
423.504	26.425
426.879	14.8806
430.254	28.3466
433.629	13.0087
437.003	4.17865
440.378	30.6369
443.753	22.8792
447.128	7.45056
450.503	29.6683
453.878	6.1925
457.252	0.315674
460.627	8.19214
464.002	32.4114
467.377	33.9325
470.752	37.5075
474.127	12.8496
477.501	12.6859
480.876	47.4931
484.251	18.101
487.626	24.0526
491.001	5.68494
494.375	19.3033
497.75	22.8274
501.125	33.0329
504.5	0.593018
507.875	24.2536
511.25	6.88074
514.624	28.3373
517.999	41.9182
521.374	21.392
524.749	23.4019
528.124	23.2749
531.498	11.2581
534.873	10.7136
538.248	28.3557
541.623	32.425
544.998	19.4969
548.372	13.6597
551.747	3.06677
555.122	24.4575
558.497	11.5053
561.872	25.7224
565.247	8.60687
568.621	16.4422
571.996	10.3538
575.371	33.0772
578.746	20.9844
582.121	24.7578
585.495	5.39429
588.87	29.8974
592.245	12.9175
595.62	11.7702
598.995	14.0683
602.37	19.7719
605.744	28.1998
609.119	31.4438
612.494	14.0418
615.869	23.1859
619.244	8.66101
622.619	25.9861
625.993	19.9547
629.368	20.1896
632.743	4.49945
636.118	8.36813
639.493	11.8627
642.867	7.42419
646.242	5.99289
649.617	20.8828
652.992	10.5074
656.367	7.86346
659.741	25.0093
663.116	29.8363
666.491	33.0161
669.866	24.0641
673.241	6.45889
676.616	25.1226
679.99	3.09958
683.365	32.0443
686.74	9.16879
690.115	15.4846
693.49	10.1888
696.865	10.3567
700.239	23.2173
703.614	0.979858
706.989	4.69324
710.364	11.2985
713.739	33.008
717.113	29.1712
720.488	16.8457
723.863	24.0057
727.238	11.2053
730.613	2.55469
733.987	30.5056
737.362	42.2089
740.737	12.2919
744.112	26.3287
747.487	11.227
750.862	22.1418
754.236	21.8642
757.611	4.05801
760.986	24.4535
764.361	24.366
767.736	16.3147
771.111	2.97269
774.485	9.24863
777.86	7.52374
781.235	13.4301
784.61	13.4139
787.985	21.8588
791.359	8.30911
794.734	0.855774
798.109	17.6928
801.484	12.2346
804.859	9.47568
808.234	19.4108
811.608	15.9451
814.983	8.3551
818.358	11.6934
821.733	22.1108
825.108	14.6675
828.482	9.8783
831.857	18.4671
835.232	0.854004
838.607	20.9308
841.982	6.98541
845.356	2.34699
848.731	13.6425
852.106	9.07739
855.481	36.9933
858.856	22.7575
862.231	23.5519
865.605	25.9413
868.98	12.259
872.355	23.7351
875.73	26.8733
879.105	4.42023
882.48	25.3643
885.854	38.4512
889.229	14.7567
892.604	27.5418
895.979	13.8113
899.354	44.1949
902.729	24.337
906.103	5.72156
909.478	18.4981
912.853	11.9603
916.228	24.7706
919.602	13.462
922.977	8.71259
926.352	11.8421
929.727	8.14978
933.102	28.7956
936.477	26.8543
939.851	22.1602
943.226	62.712
946.601	17.3154
949.976	55.2493
953.351	21.2347
956.726	17.6055
960.1	28.6008
963.475	30.1529
966.85	17.7167
970.225	32.5578
973.6	43.0826
976.974	43.4252
980.349	20.2443
983.724	34.8538
987.099	41.7778
990.474	21.8535
993.848	15.9969
997.223	4.05511
1000.6	33.8458
1003.97	11.55
1007.35	3.55383
1010.72	20.7185
1014.1	9.35071
1017.47	51.9602
1020.85	18.7097
1024.22	32.4873
1027.6	53.256
1030.97	43.4191
1034.35	36.2398
1037.72	42.4293
1041.1	17.168
1044.47	21.5933
1047.85	18.1334
1051.22	23.8262
1054.6	17.9274
1057.97	44.1012
1061.35	20.0888
1064.72	18.7098
1068.09	56.6481
1071.47	11.0419
1074.84	9.32452
1078.22	12.9183
1081.59	20.6445
1084.97	22.6865
1088.34	45.7819
1091.72	22.1034
1095.09	15.8239
1098.47	26.5162
1101.84	42.9173
1105.22	14.119
1108.59	28.8667
1111.97	30.2192
1115.34	15.7918
1118.72	18.9496
1122.09	24.8048
1125.47	14.9757
1128.84	20.427
1132.22	47.5144
1135.59	13.3559
1138.97	20.8639
1142.34	1.76495
1145.71	21.0919
1149.09	18.8696
1152.46	23.5308
1155.84	20.1291
1159.21	33.2952
1162.59	22.436
1165.96	7.93347
1169.34	39.7882
1172.71	30.9169
1176.09	10.1021
1179.46	9.05481
1182.84	27.0902
1186.21	5.99219
1189.59	17.2041
1192.96	34.7279
1196.34	35.6699
1199.71	29.0822
1203.09	18.827
1206.46	29.2359
1209.84	43.9764
1213.21	30.7441
1216.59	14.6213
1219.96	11.4952
1223.34	3.23682
1226.71	25.2196
1230.09	5.72705
1233.46	74.0203
1236.84	10.4702
1240.21	17.873
1243.59	58.0161
1246.96	39.0062
1250.34	18.8414
1253.71	37.8291
1257.08	45.6914
1260.46	37.3091
1263.83	23.7771
1267.21	17.0545
1270.58	6.26996
1273.96	47.2173
1277.33	25.7157
1280.71	49.1496
1284.08	35.6674
1287.46	39.8196
1290.83	2.30713
1294.21	2.31616
1297.58	41.8288
1300.96	15.3389
1304.33	28.3778
1307.71	0
