Measurement: Raman, 785 nm, unoriented, Raman Data Processed
Mineral: Petzite
Rruff sample: R070254
Ideal chemistry: Ag_3_AuTe_2_
Locality: Red Jacket mine, Baker County, Oregon, USA
Source: Michael Scott
Description: Steel grey metallic fragments with subconchoidal fracture, sample used as the standard for the ICDD powder diffraction file
Measured chemistry: Ag_3.00_Au_1.00_Te_2.00_ ; = lighter phase. The darker phase is: Ag_3.00_(Au_0.99_Cu_0.01_)_Î£=1_Te_2.00_
Raman shift (cm-1)	intensity
155.25	0
158.142	4.14679
161.035	24.9296
163.928	110.692
166.821	58.1555
169.713	46.6981
172.606	51.2908
175.499	42.5725
178.391	24.7495
181.284	1.56519
184.177	10.3145
187.069	32.9945
189.962	16.0222
192.855	6.76764
195.748	5.50223
198.64	27.9818
201.533	38.6631
204.426	21.0157
207.318	17.6964
210.211	6.73776
213.104	0.471405
215.996	2.17813
218.889	10.9031
221.782	31.1722
224.674	3.70468
227.567	10.9159
230.46	17.5474
233.353	8.34537
236.245	38.0507
239.138	23.3845
242.031	2.87051
244.923	14.264
247.816	19.2171
250.709	17.3342
253.601	31.8268
256.494	31.214
259.387	31.5101
262.28	19.7071
265.172	10.8978
268.065	14.8005
270.958	21.5629
273.85	21.2452
276.743	19.3803
279.636	15.1588
282.529	11.3483
285.421	2.64056
288.314	15.7356
291.207	3.69543
294.099	20.8956
296.992	13.4815
299.885	25.0214
302.777	14.0892
305.67	24.7144
308.563	40.0919
311.455	55.6641
314.348	52.0946
317.241	64.0231
320.134	55.6688
323.026	63.4678
325.919	56.8558
328.812	47.1362
331.704	59.5697
334.597	27.8215
337.49	26.4299
340.382	30.9729
343.275	23.8885
346.168	36.4349
349.061	44.6317
351.953	5.28491
354.846	15.9101
357.739	15.3877
360.631	1.55576
363.524	5.82326
366.417	0.762115
369.31	0.311768
372.202	14.1265
375.095	14.7631
377.988	15.0396
380.88	17.4654
383.773	3.44841
386.666	15.6708
389.558	27.6056
392.451	14.659
395.344	25.3964
398.236	8.40854
401.129	15.0608
404.022	15.4109
406.915	9.35614
409.807	16.1616
412.7	13.4778
415.593	35.0876
418.485	30.071
421.378	23.9559
424.271	22.9672
427.163	16.4314
430.056	18.7003
432.949	0.372421
435.842	17.2786
438.734	6.16992
441.627	3.50594
444.52	16.0533
447.412	27.7341
450.305	19.7892
453.198	0.311752
456.091	0.385498
458.983	16.7938
461.876	16.356
464.769	19.365
467.661	18.4262
470.554	15.4335
473.447	23.4362
476.339	8.50063
479.232	11.5736
482.125	6.11563
485.017	12.3899
487.91	19.8643
490.803	12.9653
493.696	23.0962
496.588	5.19058
499.481	13.4094
502.374	8.45708
505.266	4.25159
508.159	1.94185
511.052	18.4705
513.944	3.36075
516.837	23.6359
519.73	9.01779
522.623	6.38704
525.515	11.2423
528.408	25.8476
531.301	9.21374
534.193	15.4665
537.086	4.62396
539.979	16.0271
542.871	17.3301
545.764	15.1466
548.657	14.8353
551.55	15.554
554.442	8.25061
557.335	12.9094
560.228	23.846
563.12	15.3169
566.013	11.5915
568.906	14.4999
571.798	7.10848
574.691	12.9281
577.584	13.8901
580.477	18.7884
583.369	11.0444
586.262	18.8809
589.155	18.7096
592.047	8.81642
594.94	22.1664
597.833	17.838
600.726	9.68909
603.618	6.15544
606.511	9.90198
609.404	15.7061
612.296	14.7362
615.189	7.3464
618.082	0.694626
620.974	18.5306
623.867	14.4781
626.76	18.3446
629.653	19.8326
632.545	14.6151
635.438	24.3845
638.331	10.9024
641.223	13.6139
644.116	7.27228
647.009	4.60512
649.901	27.5874
652.794	6.71436
655.687	22.5616
658.58	14.0192
661.472	11.4888
664.365	16.7616
667.258	20.1378
670.15	19.6817
673.043	14.9835
675.936	2.78964
678.828	19.1008
681.721	21.3456
684.614	0.249313
687.506	9.10518
690.399	6.43408
693.292	17.5514
696.185	11.8259
699.077	10.8123
701.97	2.235
704.863	18.7024
707.755	11.134
710.648	23.2957
713.541	12.7783
716.433	8.81226
719.326	17.1461
722.219	12.9686
725.112	9.25302
728.004	2.26543
730.897	19.0443
733.79	13.6198
736.682	0.993607
739.575	8.77608
742.468	13.9841
745.361	2.29243
748.253	19.1341
751.146	8.08638
754.039	14.8117
756.931	13.0706
759.824	12.7596
762.717	13.8122
765.609	2.92952
768.502	7.86444
771.395	20.3305
774.288	15.1652
777.18	9.58655
780.073	1.63779
782.966	17.4589
785.858	45.9994
788.751	8.57106
791.644	7.04053
794.536	13.4294
797.429	4.61438
800.322	4.00684
803.215	27.4828
806.107	8.79173
809	10.9933
811.893	36.324
814.785	20.7327
817.678	27.0206
820.571	11.6843
823.463	14.2075
826.356	23.5951
829.249	11.2212
832.141	5.32024
835.034	16.052
837.927	14.236
840.82	11.7375
843.712	19.8137
846.605	2.29355
849.498	14.0929
852.39	2.15045
855.283	15.668
858.176	10.5739
861.068	5.75079
863.961	12.907
866.854	8.25885
869.747	11.7342
872.639	9.57687
875.532	8.34175
878.425	24.9253
881.317	14.7307
884.21	7.38338
887.103	21.3919
889.995	3.39014
892.888	22.336
895.781	7.70732
898.674	17.4928
901.566	14.8635
904.459	16.3758
907.352	40.4235
910.244	20.1629
913.137	20.4755
916.03	10.774
918.923	12.9898
921.815	41.4801
924.708	11.873
927.601	23.0606
930.493	23.7478
933.386	12.9771
936.279	18.2861
939.171	25.9389
942.064	23.0639
944.957	17.0792
947.85	5.38586
950.742	15.1646
953.635	8.72762
956.528	1.52531
959.42	20.5368
962.313	14.5282
965.206	8.38573
968.098	14.9939
970.991	9.46494
973.884	24.4358
976.777	8.58014
979.669	7.72612
982.562	10.5977
985.455	18.8078
988.347	20.3277
991.24	16.6682
994.133	25.7375
997.025	21.8025
999.918	6.71394
1002.81	27.1749
1005.7	7.86716
1008.6	22.5484
1011.49	10.1818
1014.38	9.59708
1017.27	6.24144
1020.17	4.60934
1023.06	14.7016
1025.95	16.9708
1028.85	12.8946
1031.74	10.1024
1034.63	12.3682
1037.52	18.5504
1040.42	5.64543
1043.31	9.47391
1046.2	20.7215
1049.09	8.38975
1051.99	18.615
1054.88	6.8887
1057.77	6.00249
1060.66	15.6345
1063.56	18.3428
1066.45	26.3991
1069.34	15.1036
1072.24	27.0704
1075.13	2.54198
1078.02	1.37587
1080.91	13.1381
1083.81	10.6997
1086.7	8.96237
1089.59	17.0233
1092.48	10.7186
1095.38	21.6561
1098.27	0.855194
1101.16	17.5851
1104.06	17.1774
1106.95	22.7764
1109.84	24.3062
1112.73	32.6572
1115.63	20.4711
1118.52	10.4336
1121.41	24.8559
1124.3	19.0132
1127.2	4.90607
1130.09	8.05231
1132.98	5.03403
1135.88	14.0694
1138.77	25.3014
1141.66	8.44255
1144.55	19.7802
1147.45	21.3964
1150.34	21.8315
1153.23	12.1039
1156.12	6.79932
1159.02	8.71478
1161.91	16.6193
1164.8	23.3994
1167.69	17.6586
1170.59	11.0263
1173.48	15.0697
1176.37	20.4081
1179.27	10.554
1182.16	24.9446
1185.05	28.4356
1187.94	2.1602
1190.84	23.3837
1193.73	11.736
1196.62	2.95416
1199.51	18.126
1202.41	25.4342
1205.3	8.50474
1208.19	32.5003
1211.09	24.5294
1213.98	30.3142
1216.87	6.95195
1219.76	1.31174
1222.66	4.98889
1225.55	5.54576
1228.44	4.95425
1231.33	4.06564
