Measurement: Raman, 785 nm, unoriented, Raman Data Processed
Mineral: Philipsburgite
Rruff sample: R061036
Ideal chemistry: (Cu^2+^,Zn^2+^)_6_(As^5+^O_4_,PO_4_)_2_(OH)_6_H_2_O
Locality: Black Pine mine, Granite county, Montana, USA
Source: Michael Scott
Description: Dark green, almost black subparallel rosettes, associated with lighter greenish blue spherules of zapatalite
Raman shift (cm-1)	intensity
138.402	0
141.295	1.11545
144.188	32.3896
147.08	60.3271
149.973	59.4892
152.866	70.2253
155.758	60.8448
158.651	50.3946
161.544	67.6349
164.436	73.0652
167.329	104.677
170.222	80.8615
173.115	79.528
176.007	81.8609
178.9	62.4736
181.793	69.2896
184.685	35.8368
187.578	40.383
190.471	25.4803
193.363	39.346
196.256	50.5305
199.149	33.0763
202.042	27.3136
204.934	23.2876
207.827	39.6906
210.72	22.7898
213.612	20.2418
216.505	24.8836
219.398	14.8996
222.291	6.13591
225.183	14.5252
228.076	5.2652
230.969	9.86066
233.861	9.27377
236.754	17.6567
239.647	15.8221
242.539	5.95155
245.432	1.91759
248.325	11.5078
251.218	4.75198
254.11	8.08574
257.003	6.80991
259.896	3.4868
262.788	2.20787
265.681	22.6879
268.574	18.0638
271.466	22.3047
274.359	25.0266
277.252	16.6711
280.144	29.9563
283.037	18.9692
285.93	22.9526
288.823	19.1965
291.715	33.642
294.608	31.7967
297.501	24.4785
300.393	18.9184
303.286	31.6817
306.179	29.4145
309.072	12.4242
311.964	12.9815
314.857	15.4105
317.75	17.2176
320.642	1.76762
323.535	3.59891
326.428	3.71065
329.32	2.8578
332.213	13.4556
335.106	16.2921
337.998	9.37895
340.891	1.59828
343.784	18.7911
346.677	13.7932
349.569	7.44708
352.462	12.0976
355.355	1.74603
358.247	17.4786
361.14	25.8499
364.033	37.481
366.925	24.5148
369.818	52.1264
372.711	58.8224
375.604	49.621
378.496	58.6329
381.389	50.2826
384.282	44.8294
387.174	55.3715
390.067	32.4933
392.96	28.5794
395.853	33.9106
398.745	20.4132
401.638	25.2988
404.531	14.4487
407.423	11.106
410.316	25.501
413.209	15.6612
416.101	10.5093
418.994	16.1652
421.887	25.014
424.779	17.0105
427.672	11.1468
430.565	1.909
433.458	17.1639
436.35	27.0622
439.243	1.52782
442.136	0.849976
445.028	12.7922
447.921	8.92042
450.814	2.72426
453.707	15.9359
456.599	21.6626
459.492	42.4076
462.385	22.0243
465.277	30.9435
468.17	51.2189
471.063	46.1067
473.955	39.3533
476.848	38.5557
479.741	34.7737
482.634	44.9012
485.526	51.078
488.419	39.7687
491.312	37.5917
494.204	54.2572
497.097	53.4886
499.99	33.2358
502.882	29.7745
505.775	34.7618
508.668	25.9052
511.56	3.50684
514.453	10.6003
517.346	18.2685
520.239	20.7807
523.131	1.54285
526.024	15.4661
528.917	11.5534
531.809	5.38615
534.702	3.0704
537.595	8.64835
540.487	21.4367
543.38	8.83781
546.273	5.33993
549.166	29.6432
552.058	19.0521
554.951	16.1133
557.844	22.5323
560.736	33.9527
563.629	24.0571
566.522	8.33383
569.414	17.5302
572.307	13.415
575.2	19.3885
578.093	21.3258
580.985	26.6475
583.878	34.0322
586.771	5.00653
589.663	13.5844
592.556	8.61865
595.449	24.8509
598.341	20.7947
601.234	18.8516
604.127	9.49809
607.02	29.4418
609.912	21.969
612.805	18.4009
615.698	9.95554
618.59	9.06105
621.483	24.3881
624.376	23.7266
627.269	18.7575
630.161	20.4323
633.054	2.74875
635.947	3.39525
638.839	5.08191
641.732	21.4331
644.625	34.7867
647.517	15.3087
650.41	24.1906
653.303	6.29988
656.196	25.5361
659.088	8.36703
661.981	16.8032
664.874	8.06685
667.766	8.44989
670.659	32.4381
673.552	20.9507
676.444	21.663
679.337	17.1988
682.23	5.07313
685.122	8.74298
688.015	19.89
690.908	4.79083
693.801	14.2721
696.693	9.88376
699.586	25.2492
702.479	3.27365
705.371	11.5143
708.264	12.7507
711.157	21.646
714.049	14.1713
716.942	25.7423
719.835	29.4485
722.728	21.0983
725.62	19.609
728.513	7.99036
731.406	9.06665
734.298	39.814
737.191	14.1941
740.084	13.989
742.976	4.71144
745.869	1.25403
748.762	16.9009
751.655	23.0551
754.547	19.6539
757.44	25.0251
760.333	1.72809
763.225	12.8992
766.118	14.0662
769.011	5.02625
771.904	23.9468
774.796	23.1769
777.689	19.3858
780.582	25.2434
783.474	50.6726
786.367	32.1154
789.26	46.2505
792.152	19.8938
795.045	35.5924
797.938	18.6511
800.831	37.0543
803.723	39.8327
806.616	41.1686
809.509	53.5676
812.401	29.5431
815.294	42.1
818.187	64.2339
821.079	49.0583
823.972	55.7438
826.865	45.3404
829.757	54.4139
832.65	57.3481
835.543	43.7749
838.436	59.7206
841.328	45.4092
844.221	52.4237
847.114	41.35
850.006	50.8103
852.899	47.6661
855.792	50.3995
858.684	50.3057
861.577	65.431
864.47	53.7315
867.362	59.7837
870.255	44.5986
873.148	21.5699
876.041	19.254
878.933	11.3307
881.826	26.9203
884.719	11.9913
887.611	3.44933
890.504	14.8177
893.397	16.6191
896.29	0.058212
899.182	9.845
902.075	11.3988
904.968	0.80899
907.86	0.972733
910.753	2.23538
913.646	12.2193
916.538	29.9229
919.431	10.0249
922.324	17.5154
925.217	16.2446
928.109	28.1014
931.002	39.0337
933.895	46.0827
936.787	42.3216
939.68	52.261
942.573	38.3938
945.466	27.1524
948.358	29.0817
951.251	30.2227
954.144	49.8146
957.036	51.5087
959.929	52.9151
962.822	56.9188
965.714	64.3158
968.607	84.4202
971.5	43.9766
974.393	46.3095
977.285	28.9618
980.178	22.4766
983.071	35.5359
985.963	25.2137
988.856	15.6311
991.749	4.33699
994.641	10.8151
997.534	0.470001
1000.43	4.09366
1003.32	1.99355
1006.21	12.5905
1009.11	4.38563
1012	19.2685
1014.89	4.47807
1017.78	14.3128
1020.68	25.7178
1023.57	16.4833
1026.46	6.81783
1029.35	19.8374
1032.25	5.76187
1035.14	29.3344
1038.03	3.87639
1040.92	18.8774
1043.82	19.4711
1046.71	11.6005
1049.6	32.8905
1052.49	16.9055
1055.39	17.9288
1058.28	18.4863
1061.17	28.7186
1064.07	26.1599
1066.96	4.29002
1069.85	18.3596
1072.74	0.44252
1075.64	30.4106
1078.53	17.7712
1081.42	17.0923
1084.32	29.0863
1087.21	19.3866
1090.1	13.172
1092.99	6.87564
1095.89	1.76967
1098.78	19.0013
1101.67	8.04671
1104.56	27.9245
1107.46	14.2296
1110.35	1.55891
1113.24	16.8497
1116.13	26.6513
1119.03	9.67868
1121.92	4.77103
1124.81	4.2299
1127.71	20.9357
1130.6	26.1461
1133.49	3.02815
1136.38	9.49918
1139.28	15.9776
1142.17	13.3716
1145.06	14.4024
1147.95	25.4109
1150.85	36.7081
1153.74	5.42665
1156.63	19.734
1159.53	11.6794
1162.42	25.2797
1165.31	22.7127
1168.2	25.3925
1171.1	32.5022
1173.99	10.6036
1176.88	18.8716
1179.77	1.32649
1182.67	21.4551
1185.56	2.77445
1188.45	30.3776
1191.35	16.7714
1194.24	21.8064
1197.13	17.756
1200.02	24.091
1202.92	16.2017
1205.81	25.3761
1208.7	6.32413
1211.59	19.5216
1214.49	37.3075
1217.38	23.7588
1220.27	28.302
1223.16	20.0875
1226.06	36.6502
1228.95	17.2127
1231.84	19.3187
1234.73	23.3209
1237.63	12.8652
1240.52	3.65988
1243.41	18.9377
1246.31	18.1731
1249.2	10.7884
1252.09	22.9218
1254.98	35.4538
1257.88	11.2002
1260.77	21.5913
1263.66	30.6269
1266.56	26.0968
1269.45	7.41753
