Measurement: Raman, 780 nm, unoriented, Raman Data Processed
Mineral: Phosphohedyphane
Rruff sample: R110037
Ideal chemistry: Ca_2_Pb^2+^_3_(PO_4_)_3_Cl
Locality: Blue Bell claims, Baker, San Bernardino County, California, USA
Source: Brent Thorne
Description: Colorless hexagonal prisms with long pyramidal terminations
Raman shift (cm-1)	intensity
92.5678	1108.45
95.9426	1252.42
99.3174	1216.03
102.692	1112.86
106.067	999.409
109.442	944.829
112.817	931.456
116.192	927.904
119.566	931.781
122.941	956.414
126.316	969.019
129.691	980.21
133.066	1000.7
136.44	1011.22
139.815	1040.94
143.19	1068.46
146.565	1087.2
149.94	1103.15
153.315	1116.34
156.689	1137.47
160.064	1164.14
163.439	1178.34
166.814	1224.81
170.189	1249.44
173.563	1285.59
176.938	1320.8
180.313	1349.28
183.688	1399.54
187.063	1436.56
190.437	1472.68
193.812	1516.95
197.187	1548.36
200.562	1565.19
203.937	1583.35
207.311	1618.26
210.686	1627.83
214.061	1663.39
217.436	1691.05
220.811	1720.53
224.186	1748.46
227.56	1785.99
230.935	1813.42
234.31	1856.19
237.685	1892.73
241.06	1930.79
244.435	1963.64
247.809	2015.14
251.184	2055.75
254.559	2091.81
257.934	2131.86
261.309	2175.42
264.683	2227.21
268.058	2277.26
271.433	2320.7
274.808	2394.69
278.183	2487.15
281.558	2590.14
284.932	2693.89
288.307	2810.43
291.682	2931.22
295.057	3069.97
298.432	3181.54
301.806	3306.94
305.181	3420.97
308.556	3551.09
311.931	3695.21
315.306	3818.55
318.68	3979.95
322.055	4150.7
325.43	4302.57
328.805	4516.61
332.18	4704.85
335.555	4884.49
338.929	5032.16
342.304	5165.95
345.679	5221.6
349.054	5250.46
352.429	5214.12
355.803	5177.32
359.178	5101.85
362.553	5036.16
365.928	4938.54
369.303	4902.49
372.678	4879.37
376.052	4869.77
379.427	4886.86
382.802	4951.91
386.177	5046.14
389.552	5129.34
392.926	5233.59
396.301	5314.52
399.676	5324.45
403.051	5305.04
406.426	5245.91
409.8	5141.11
413.175	5015.92
416.55	4893.06
419.925	4750.5
423.3	4616.15
426.675	4458.42
430.049	4312.78
433.424	4163.06
436.799	4008.84
440.174	3859.65
443.549	3741.9
446.923	3618.51
450.298	3510.91
453.673	3419.97
457.048	3314.7
460.423	3233.12
463.798	3157.16
467.172	3078.91
470.547	3027.44
473.922	2973.81
477.297	2922.81
480.672	2863.03
484.046	2831.99
487.421	2803.19
490.796	2759.64
494.171	2721.55
497.546	2710.43
500.921	2674.45
504.295	2661.22
507.67	2632.39
511.045	2607.5
514.42	2579.91
517.795	2552.75
521.169	2522.34
524.544	2506
527.919	2479.35
531.294	2466.17
534.669	2452.71
538.044	2435.81
541.418	2415.67
544.793	2406.88
548.168	2397.16
551.543	2399.45
554.918	2385.07
558.293	2369.95
561.667	2354.39
565.042	2339.98
568.417	2336.11
571.792	2327.25
575.167	2324.12
578.541	2322.64
581.916	2322.41
585.291	2331.3
588.666	2319.72
592.041	2320.47
595.415	2310.58
598.79	2281.83
602.165	2259.1
605.54	2265.82
608.915	2246.41
612.29	2242.76
615.664	2238.47
619.039	2221.2
622.414	2209.28
625.789	2194.8
629.164	2184.45
632.538	2173.82
635.913	2157.72
639.288	2128.64
642.663	2105.38
646.038	2081.68
649.413	2053.44
652.787	2017.49
656.162	1981.44
659.537	1940.5
662.912	1886.24
666.287	1842.52
669.661	1789.11
673.036	1730.96
676.411	1668.47
679.786	1625.97
683.161	1553.95
686.535	1506.06
689.91	1453.18
693.285	1383.56
696.66	1332.9
700.035	1277.1
703.41	1224.62
706.784	1184.77
710.159	1133.85
713.534	1096.72
716.909	1054.57
720.284	1010.92
723.659	976.263
727.033	945.012
730.408	914.548
733.783	891.079
737.158	868.375
740.533	832.054
743.907	815.572
747.282	795.962
750.657	773.378
754.032	757.408
757.407	738.684
760.782	726.74
764.156	707.806
767.531	691.331
770.906	672.512
774.281	662.897
777.656	649.997
781.03	644.218
784.405	629.081
787.78	617.352
791.155	604.063
794.53	599.061
797.904	591.045
801.279	578.996
804.654	572.35
808.029	558.758
811.404	554.603
814.779	545.131
818.153	533.482
821.528	527.134
824.903	519.858
828.278	514.795
831.653	505.741
835.028	493.853
838.402	490.7
841.777	481.052
845.152	473.664
848.527	473.121
851.902	468.742
855.276	460.502
858.651	458.87
862.026	452.744
865.401	452.564
868.776	449.754
872.15	443.331
875.525	439.893
878.9	439.108
882.275	436.045
885.65	438.518
889.024	434.349
892.399	433.897
895.774	434.286
899.149	430.785
902.524	441.988
905.899	445.344
909.273	499.094
912.648	496.443
916.023	544.49
919.398	611.689
922.773	694.504
926.148	740.81
929.522	711.964
932.897	648.042
936.272	574.317
939.647	543.176
943.022	541.819
946.396	556.892
949.771	590.82
953.146	619.929
956.521	657.969
959.896	686.905
963.27	701.415
966.645	725.285
970.02	692.646
973.395	684.604
976.77	659.05
980.145	639.504
983.519	640.726
986.894	638.719
990.269	632.917
993.644	630.339
997.019	630.985
1000.39	635.922
1003.77	644.773
1007.14	656.915
1010.52	671.022
1013.89	683.196
1017.27	710.42
1020.64	721.869
1024.02	748.417
1027.39	775.373
1030.77	814.852
1034.14	839.981
1037.52	879.957
1040.89	906.218
1044.27	951.575
1047.64	996.069
1051.02	1046.98
1054.39	1108.99
1057.77	1164.63
1061.14	1239.51
1064.52	1306.02
1067.89	1384.49
1071.27	1478.56
1074.64	1576.19
1078.01	1694.52
1081.39	1825.14
1084.76	2009.31
1088.14	2170
1091.51	2385.1
1094.89	2631.59
1098.26	2886.6
1101.64	3188.21
1105.01	3508.78
1108.39	3878.74
1111.76	4200.9
1115.14	4490.61
1118.51	4794.1
1121.89	5041.33
1125.26	5242.93
1128.64	5438.81
1132.01	5614.57
1135.39	5772.93
1138.76	5946.9
1142.14	6100.26
1145.51	6263.53
1148.88	6425.79
1152.26	6590.18
1155.63	6759.76
1159.01	6917.98
1162.38	7087.61
1165.76	7264.74
1169.13	7464.15
1172.51	7638.12
1175.88	7817.74
1179.26	8025.8
1182.63	8218.02
1186.01	8431.84
1189.38	8693.2
1192.76	8905.86
1196.13	9145.88
1199.51	9353.87
1202.88	9610.09
1206.26	9888.8
1209.63	10156.7
1213.01	10444.4
1216.38	10774.1
1219.76	11083.9
1223.13	11454.1
1226.51	11891.7
1229.88	12275.8
1233.26	12769.5
1236.63	13296.2
1240.01	13722.4
1243.38	14257.7
1246.76	14844.3
1250.13	15327.7
1253.51	15843
1256.88	16397.9
1260.25	16928.1
1263.63	17445.7
1267	17963
1270.38	18428.2
1273.75	18916.6
1277.13	19408.4
1280.5	19880
1283.88	20580.2
