Measurement: Raman, 532 nm, unoriented, Raman Data Processed
Mineral: Phosphuranylite
Rruff sample: R110155
Ideal chemistry: KCa(H_3_O)_3_(U^6+^O_2_)_7_(PO_4_)_4_O_4_8H_2_O
Locality: Folgosinho, Portugal
Source: Luiz Menezes
Description: Light yellow bladed crystals.
Raman shift (cm-1)	intensity
226.449	0
229.342	7.32812
232.234	292.75
235.127	867.469
238.02	724.812
240.913	361.172
243.805	24.0781
246.698	144.609
249.591	237.422
252.483	404.297
255.376	602.422
258.269	1089.62
261.161	1173.91
264.054	937.844
266.947	1000.25
269.84	1202.95
272.732	1623.94
275.625	1935.53
278.518	1924.58
281.41	1575.55
284.303	464.016
287.196	153.406
290.089	6.78125
292.981	609.25
295.874	704.656
298.767	904.016
301.659	876.547
304.552	958.453
307.445	766.5
310.337	657.797
313.23	764.344
316.123	973.688
319.015	869.531
321.908	550.719
324.801	257.891
327.694	203
330.586	153.328
333.479	364.844
336.372	1149.67
339.264	1064.31
342.157	640.828
345.05	43.0938
347.942	110.328
350.835	158.625
353.728	524.094
356.621	1077.64
359.513	889.922
362.406	676.328
365.299	489.5
368.191	738.031
371.084	684.047
373.977	767.672
376.87	503.328
379.762	480.312
382.655	737.188
385.548	867.703
388.44	1047.39
391.333	754.078
394.226	628.594
397.118	712.328
400.011	889.625
402.904	822
405.796	964.25
408.689	853.312
411.582	1203.61
414.475	1455.83
417.367	1366.27
420.26	1007.8
423.153	1072.23
426.045	1186.95
428.938	1732.2
431.831	1599.62
434.724	1446.77
437.616	1104.17
440.509	1160.77
443.402	1426.73
446.294	1379.72
449.187	1346.39
452.08	824.234
454.972	339.922
457.865	462.891
460.758	518.516
463.651	409.578
466.543	53.1094
469.436	280.172
472.329	97.7656
475.221	0.484375
478.114	53.6719
481.007	38.1719
483.899	257.484
486.792	292.312
489.685	385.641
492.577	228.109
495.47	666.672
498.363	875.062
501.256	673.703
504.148	443.781
507.041	315.203
509.934	652.703
512.826	764.953
515.719	590.656
518.612	276.281
521.505	343.859
524.397	935.047
527.29	1362.44
530.183	1051.69
533.075	863.594
535.968	540.016
538.861	407.297
541.753	651.266
544.646	679.969
547.539	730.812
550.432	996.469
553.324	996.969
556.217	645.672
559.11	559.188
562.002	449.859
564.895	434.984
567.788	280.734
570.68	276.484
573.573	212.312
576.466	467.75
579.359	672.344
582.251	818.047
585.144	501.141
588.037	857.297
590.929	766.922
593.822	921.156
596.715	691.781
599.607	640.031
602.5	288.234
605.393	132.781
608.285	361.953
611.178	500.344
614.071	393.188
616.964	360.359
619.856	408.156
622.749	367.594
625.642	47.5781
628.534	308.766
631.427	34.3125
634.32	422.531
637.212	549.344
640.105	302.688
642.998	320.016
645.891	364.281
648.783	344.172
651.676	394.062
654.569	747.125
657.461	696.594
660.354	940.688
663.247	775.016
666.139	548.562
669.032	544.141
671.925	413.797
674.818	663.188
677.71	718.469
680.603	982.703
683.496	1245.38
686.388	945.312
689.281	1023.17
692.174	1017.28
695.067	928.859
697.959	1066.38
700.852	621.984
703.745	249.906
706.637	477.219
709.53	704.75
712.423	615.781
715.315	183.656
718.208	124.281
721.101	68.8906
723.994	360.359
726.886	702.703
729.779	859.5
732.672	757.828
735.564	509.453
738.457	256.859
741.35	1.39062
744.242	133.359
747.135	115.594
750.028	116.953
752.92	701.734
755.813	803.688
758.706	642.875
761.599	317.344
764.491	447.547
767.384	481.031
770.277	453.656
773.169	550.828
776.062	437.656
778.955	405.094
781.847	535.125
784.74	465.625
787.633	323.266
790.526	622.328
793.418	1238.52
796.311	1271.44
799.204	1347.94
802.096	1722.89
804.989	1950.88
807.882	2614.27
810.774	2840.33
813.667	3140.23
816.56	3483.27
819.453	3811.64
822.345	3961
825.238	3869.73
828.131	4517.33
831.023	5755.02
833.916	6907.3
836.809	8120.09
839.702	9278.94
842.594	9565.38
845.487	7491.69
848.38	3934.03
851.272	1829.69
854.165	1012.48
857.058	906.781
859.95	735.375
862.843	521.141
865.736	154.125
868.629	254
871.521	77.9531
874.414	356.297
877.307	208.672
880.199	3.54688
883.092	85.75
885.985	339.016
888.877	537.625
891.77	365.266
894.663	138.828
897.556	19.4062
900.448	60.1719
903.341	251.125
906.234	570.953
909.126	707.703
912.019	479.359
914.912	474.938
917.804	659.844
920.697	416.984
923.59	269.547
926.482	381.234
929.375	457.406
932.268	132.406
935.161	96.4688
938.053	119.172
940.946	120.484
943.839	288.484
946.731	496.75
949.624	313.297
952.517	329.328
955.409	207
958.302	84.8125
961.195	131.953
964.088	293.188
966.98	414.609
969.873	470.312
972.766	169.312
975.658	74.2188
978.551	337.891
981.444	405.625
984.337	310.328
987.229	517.656
990.122	748.203
993.015	856.781
995.907	567.938
998.8	473.078
1001.69	676.188
1004.59	633.812
1007.48	933.438
1010.37	953.031
1013.26	574.25
1016.16	468.094
1019.05	544.844
1021.94	911.195
1024.83	641.68
1027.73	513.766
1030.62	590.57
1033.51	736.742
1036.4	1156.93
1039.3	955.883
1042.19	817.172
1045.08	895.492
1047.98	826.062
1050.87	1094.16
1053.76	1188.98
1056.65	1103.96
1059.55	894.898
1062.44	822.031
1065.33	620.305
1068.22	374.789
1071.12	469.672
1074.01	29.0234
1076.9	31.5625
1079.8	21.1797
1082.69	58.0469
1085.58	13.9062
1088.47	47.6328
1091.37	118.898
1094.26	142.188
1097.15	204.312
1100.04	437
1102.94	308.641
1105.83	158.93
1108.72	211.312
1111.62	543.828
1114.51	547.641
1117.4	504.188
1120.29	483.453
1123.19	568.602
1126.08	404.148
1128.97	261.68
1131.86	18.4375
1134.76	206.172
1137.65	311.672
1140.54	311.102
1143.43	233.789
1146.33	242.984
1149.22	448.664
1152.11	185.516
1155.01	148.125
1157.9	59.4922
1160.79	24.3359
1163.68	139.742
1166.58	166.07
1169.47	63.3281
1172.36	149.109
1175.26	304.516
1178.15	172.211
1181.04	292.828
1183.93	308.695
1186.83	513.438
1189.72	410.969
1192.61	494.336
1195.5	210.719
1198.4	506.586
1201.29	437.297
1204.18	422.32
1207.07	744.867
1209.97	898.844
1212.86	956.617
1215.75	615.539
1218.64	282.195
1221.54	222.492
1224.43	361.602
1227.32	452.672
1230.22	214.922
1233.11	128.109
1236	219.133
1238.89	87.0078
1241.79	183.859
1244.68	294.406
1247.57	220.18
1250.46	179.156
1253.36	217.242
1256.25	266.172
1259.14	517.859
1262.04	544.523
1264.93	491.211
1267.82	392.094
1270.71	195.938
1273.61	286.82
1276.5	363.422
1279.39	268.234
1282.29	68.125
1285.18	80.3984
1288.07	242.922
1290.96	201.867
1293.86	94.6016
1296.75	140.133
1299.64	327.445
1302.53	67.2031
