Measurement: Raman, 532 nm, unoriented, Raman Data Processed
Mineral: Phurcalite
Rruff sample: R050534
Ideal chemistry: Ca_2_(U^6+^O_2_)_3_O_2_(PO_4_)_2_7H_2_O
Locality: Posey mine, Red Canyon, San Juan County, Utah, USA
Source: University of Arizona Mineral Museum
Description: Tufts of yellow acicular crystals
Raman shift (cm-1)	intensity
156.09	0
158.983	11.6
161.875	47.484
164.768	81.861
167.661	44.511
170.553	30.387
173.446	14.665
176.339	8.972
179.232	42.842
182.124	92.304
185.017	105.776
187.91	182.083
190.802	257.812
193.695	302.425
196.588	266.855
199.48	182.34
202.373	191.683
205.266	169.589
208.159	177.01
211.051	207.457
213.944	250.931
216.837	269.493
219.73	268.118
222.622	235.145
225.515	243.78
228.408	296.986
231.3	334.352
234.193	331.192
237.086	389.581
239.978	397.131
242.871	355.074
245.764	355.106
248.656	319.806
251.549	338.03
254.442	319.3
257.335	273.903
260.227	277.034
263.12	258.808
266.013	244.37
268.905	178.239
271.798	217.735
274.691	178.728
277.583	165.263
280.476	153.662
283.369	88.92
286.262	88.67
289.154	48.328
292.047	63.588
294.94	29.113
297.832	46.31
300.725	31.16
303.618	40.858
306.51	1.009
309.403	0.601
312.296	10.28
315.189	2.958
318.081	24.203
320.974	11.909
323.867	26.09
326.759	12.967
329.652	6.876
332.545	9.647
335.438	23.975
338.33	19.439
341.223	3.181
344.116	35.237
347.008	78.486
349.901	69.882
352.794	96.758
355.686	97.406
358.579	106.013
361.472	97.433
364.365	146.455
367.257	202.052
370.15	121.007
373.043	129.329
375.935	91.337
378.828	82.456
381.721	149.62
384.613	102.507
387.506	170.895
390.399	192.748
393.292	218.433
396.184	182.005
399.077	208.187
401.97	200.967
404.862	182.231
407.755	187.105
410.648	170.07
413.54	212.118
416.433	283.799
419.326	286.441
422.219	352.322
425.111	403.101
428.004	479.098
430.897	462.614
433.789	463.999
436.682	470.565
439.575	408.503
442.467	400.728
445.36	316.714
448.253	267.541
451.146	225.594
454.038	155.364
456.931	170.636
459.824	142.557
462.716	118.279
465.609	55.194
468.502	20.448
471.394	2.649
474.287	14.465
477.18	12.571
480.073	14.094
482.965	36.28
485.858	8.516
488.751	6.841
491.643	9.276
494.536	8.327
497.429	5.324
500.321	41.762
503.214	75.919
506.107	71.353
509	43.718
511.892	75.904
514.785	46.943
517.678	54.665
520.57	10.18
523.463	37.31
526.356	22.448
529.248	14.866
532.141	32.08
535.034	11.561
537.927	14.774
540.819	0.131
543.712	10.202
546.605	69.759
549.497	84.715
552.39	90.577
555.283	57.664
558.175	151.043
561.068	113.273
563.961	138.905
566.854	191.3
569.746	221.4
572.639	240.702
575.532	227.948
578.424	178.769
581.317	132.115
584.21	92.415
587.102	33.553
589.995	69.812
592.888	6.203
595.781	61.715
598.673	43.301
601.566	2.952
604.459	62.141
607.351	50.814
610.244	48.247
613.137	89.694
616.029	112.939
618.922	120.494
621.815	72.779
624.708	90.26
627.6	85.428
630.493	77.412
633.386	40.255
636.278	43.743
639.171	44.021
642.064	63.414
644.956	34.386
647.849	18.238
650.742	6.578
653.635	7.256
656.527	34.487
659.42	7.892
662.313	10.969
665.205	33.944
668.098	14.316
670.991	11.345
673.883	11.023
676.776	7.699
679.669	10.082
682.562	22.484
685.454	26.509
688.347	5.504
691.24	0.27
694.132	41.296
697.025	21.644
699.918	41.496
702.81	33.623
705.703	67.294
708.596	107.126
711.489	112.706
714.381	162.405
717.274	248.28
720.167	245.771
723.059	243.416
725.952	228.983
728.845	188.712
731.737	157.818
734.63	174.604
737.523	130.369
740.416	112.457
743.308	114.146
746.201	109.115
749.094	90.095
751.986	125.647
754.879	103.636
757.772	116.701
760.664	111.504
763.557	58.592
766.45	59.486
769.343	50.891
772.235	81.986
775.128	86.408
778.021	140.305
780.913	163.103
783.806	304.457
786.699	358.913
789.591	586.86
792.484	736.064
795.377	932.054
798.27	941.894
801.162	933.105
804.055	903.984
806.948	914.718
809.84	959.748
812.733	1060.13
815.626	1098.57
818.518	890.143
821.411	676.977
824.304	638.664
827.197	724.803
830.089	876.794
832.982	921.43
835.875	901.751
838.767	645.507
841.66	356.961
844.553	159.177
847.445	80.733
850.338	62.118
853.231	19.157
856.124	23.914
859.016	16.426
861.909	16.864
864.802	1.974
867.694	5.756
870.587	27.26
873.48	5.615
876.372	14.884
879.265	28.719
882.158	4.352
885.051	16.984
887.943	0.098
890.836	8.232
893.729	27.094
896.621	8.503
899.514	8.996
902.407	49.409
905.299	40.802
908.192	28.89
911.085	33.746
913.978	61.508
916.87	72.056
919.763	48.156
922.656	99.015
925.549	17.25
928.441	82.533
931.334	25.232
934.227	15.971
937.119	20.101
940.012	14.207
942.905	5.938
945.797	20.624
948.69	19.191
951.583	1.588
954.476	0.451
957.368	32.631
960.261	19.111
963.154	62.399
966.046	48.891
968.939	53.052
971.832	36.498
974.724	42.8
977.617	98.479
980.51	91.439
983.403	82.615
986.295	99.608
989.188	106.822
992.081	63.784
994.973	69.551
997.866	45.693
1000.76	85.73
1003.65	57.354
1006.54	36.166
1009.44	8.483
1012.33	12.904
1015.22	3.474
1018.12	47.98
1021.01	53.14
1023.9	62.533
1026.79	87.124
1029.69	85.451
1032.58	89.874
1035.47	82.172
1038.36	74.58
1041.26	72.273
1044.15	62.367
1047.04	81.24
1049.93	70.796
1052.83	29.93
1055.72	13.143
1058.61	18.126
1061.51	57.097
1064.4	61.042
1067.29	37.933
1070.18	14.899
1073.08	27.37
1075.97	14.484
1078.86	7.165
1081.75	18.508
1084.65	8.091
1087.54	36.027
1090.43	19.898
1093.33	42.566
1096.22	23.619
1099.11	67.993
1102	19.149
1104.9	14.976
1107.79	66.731
1110.68	38.266
1113.57	46.9
1116.47	64.006
1119.36	80.905
1122.25	88.719
1125.14	85.884
1128.04	99.964
1130.93	110.609
1133.82	110.488
1136.72	87.183
1139.61	100.77
1142.5	101.835
1145.39	86.291
1148.29	58.423
1151.18	48.884
1154.07	82.214
1156.96	36.585
1159.86	34.438
1162.75	45.313
1165.64	17.955
1168.54	40.452
1171.43	2.188
1174.32	4.464
1177.21	12.307
1180.11	35.997
1183	9.036
1185.89	18.142
1188.78	32.254
1191.68	11.453
1194.57	14.926
1197.46	23.072
1200.36	38.445
1203.25	14.957
1206.14	33.92
1209.03	6.466
1211.93	41.158
1214.82	64.048
1217.71	52.232
1220.6	66.042
1223.5	121.008
1226.39	42.062
1229.28	106.681
1232.17	95.22
1235.07	86.678
1237.96	45.62
1240.85	86.196
1243.74	47.852
1246.64	55.891
1249.53	57.326
1252.42	44.073
1255.32	16.013
1258.21	4.602
1261.1	9.322
1263.99	14.928
1266.89	15.326
