Measurement: Raman, 780 nm, unoriented, Raman Data Processed
Mineral: Pinakiolite
Rruff sample: R050636
Ideal chemistry: (Mg,Mn^2+^)_2_(Mn^3+^,Sb^5+^)O_2_(BO_3_)
Locality: Langban, Filipstad, Varmland, Sweden
Source: University of Arizona Mineral Museum
Description: Dark-grey crystals embedded into matrix of calcite, dolomite and tephroite
Raman shift (cm-1)	intensity
152.772	0
155.665	2.28715
158.557	1.8593
161.45	1.20343
164.343	3.47147
167.236	4.41833
170.128	1.30004
173.021	1.76849
175.914	2.73325
178.806	0.299328
181.699	0.388336
184.592	1.70018
187.484	2.88532
190.377	3.37807
193.27	0.666889
196.162	3.98818
199.055	4.14203
201.948	1.8153
204.841	2.9878
207.733	0.413574
210.626	1.615
213.519	0.335106
216.411	0.307503
219.304	0.50193
222.197	1.93263
225.089	0.343483
227.982	0.932587
230.875	2.71864
233.768	0.090256
236.66	3.10296
239.553	1.9323
242.446	4.18546
245.338	3.16594
248.231	3.15157
251.124	4.61656
254.017	3.88239
256.909	3.31822
259.802	4.73991
262.695	3.35688
265.587	5.7863
268.48	4.64228
271.373	5.73455
274.265	7.46363
277.158	5.51853
280.051	4.95075
282.943	5.73838
285.836	3.4495
288.729	3.13559
291.622	3.33796
294.514	4.39086
297.407	5.27021
300.3	6.83796
303.192	5.42602
306.085	8.1856
308.978	8.43679
311.87	7.82816
314.763	7.80186
317.656	7.00607
320.548	7.04788
323.441	5.38214
326.334	7.32877
329.227	5.81603
332.119	5.23007
335.012	4.16687
337.905	3.99208
340.797	3.39877
343.69	4.75134
346.583	1.03753
349.476	1.96641
352.368	3.45749
355.261	2.40954
358.154	0.588799
361.046	1.56086
363.939	1.57705
366.832	1.50988
369.724	1.04405
372.617	2.41369
375.51	1.05671
378.402	0.757206
381.295	1.54588
384.188	1.19845
387.081	0.877537
389.973	1.46638
392.866	0.282211
395.759	0.13113
398.651	1.07835
401.544	0.410248
404.437	1.50504
407.329	1.34486
410.222	1.70163
413.115	4.17421
416.008	3.21053
418.9	3.85077
421.793	5.0969
424.686	2.88388
427.578	1.26524
430.471	3.47358
433.364	4.90278
436.257	4.03047
439.149	6.45898
442.042	4.93492
444.935	7.57836
447.827	7.13212
450.72	7.58964
453.613	8.58189
456.505	9.77633
459.398	10.1473
462.291	10.7402
465.183	11.4999
468.076	9.3217
470.969	9.76132
473.861	6.88061
476.754	6.82825
479.647	2.43665
482.54	3.65708
485.432	2.46973
488.325	4.17389
491.218	0.093075
494.11	0.055523
497.003	1.27846
499.896	0.796547
502.788	0.663967
505.681	0.215996
508.574	0.612907
511.467	2.63723
514.359	1.14541
517.252	0.630371
520.145	0.197578
523.037	2.17983
525.93	3.22824
528.823	3.27904
531.716	4.11442
534.608	4.79198
537.501	3.90865
540.394	4.05089
543.286	2.94878
546.179	6.03154
549.072	3.81031
551.964	3.03767
554.857	0.993126
557.75	0.86388
560.643	0.245338
563.535	0.051849
566.428	0.407372
569.321	0.21949
572.213	0.430225
575.106	3.58337
577.999	2.53117
580.891	5.75111
583.784	3.14031
586.677	8.63165
589.569	10.7381
592.462	13.6063
595.355	13.3413
598.248	15.6497
601.14	20.3171
604.033	20.7814
606.926	22.5475
609.818	22.5733
612.711	25.8239
615.604	25.6114
618.496	26.0306
621.389	29.957
624.282	31.479
627.174	32.4933
630.067	34.5138
632.96	35.3963
635.853	38.2139
638.745	37.8383
641.638	36.2848
644.531	38.4459
647.423	35.4687
650.316	34.5546
653.209	32.6023
656.101	33.9495
658.994	31.8106
661.887	31.4144
664.78	29.066
667.672	28.5956
670.565	28.0704
673.458	29.9423
676.35	32.7017
679.243	34.2867
682.136	33.8761
685.029	36.0656
687.921	31.2338
690.814	24.0645
693.707	22.1278
696.599	14.441
699.492	10.2272
702.385	7.92285
705.277	3.92812
708.17	4.71185
711.063	1.91704
713.955	0.132877
716.848	1.82996
719.741	0.415142
722.634	1.8483
725.526	0.992367
728.419	1.64474
731.312	0.710901
734.204	1.23239
737.097	0.657307
739.99	0.93643
742.882	0.810757
745.775	2.69707
748.668	4.1049
751.561	2.78216
754.453	2.36984
757.346	2.76154
760.239	3.96889
763.131	4.06266
766.024	5.06107
768.917	3.11536
771.809	5.19524
774.702	5.69557
777.595	4.38464
780.487	6.2357
783.38	4.13814
786.273	5.31993
789.166	5.09676
792.058	5.47865
794.951	3.99154
797.844	3.60678
800.736	3.73349
803.629	3.97948
806.522	3.52558
809.414	2.1176
812.307	3.64179
815.2	3.87024
818.093	0.651224
820.985	4.54153
823.878	3.36421
826.771	0.954437
829.663	1.97296
832.556	2.74439
835.449	2.61585
838.341	2.19997
841.234	2.85474
844.127	2.49163
847.02	2.11764
849.912	3.06333
852.805	5.51732
855.698	2.64338
858.59	2.4223
861.483	2.63322
864.376	2.08934
867.269	2.1672
870.161	2.45236
873.054	2.32064
875.947	2.21835
878.839	2.98158
881.732	3.04481
884.625	2.58283
887.517	2.91109
890.41	1.40584
893.303	1.59152
896.195	0.677881
899.088	0.480886
901.981	0.221621
904.874	1.26774
907.766	1.01521
910.659	1.58591
913.552	1.52766
916.444	1.66525
919.337	1.46066
922.23	2.16755
925.122	1.06246
928.015	1.75484
930.908	3.06958
933.801	2.71018
936.693	2.58739
939.586	1.58886
942.479	2.49586
945.371	2.97692
948.264	2.24513
951.157	4.14366
954.049	2.88677
956.942	0.59001
959.835	1.85966
962.727	2.64446
965.62	3.40626
968.513	2.08541
971.406	2.07495
974.298	2.61455
977.191	1.22683
980.084	2.81922
982.976	1.94969
985.869	2.0357
988.762	1.10733
991.654	2.40567
994.547	1.35187
997.44	0.057091
1000.33	1.02739
1003.23	0.026003
1006.12	0.276916
1009.01	1.20982
1011.9	1.02822
1014.8	1.767
1017.69	3.06321
1020.58	1.41471
1023.47	2.44768
1026.37	2.14679
1029.26	1.0407
1032.15	2.15982
1035.05	2.7079
1037.94	3.96326
1040.83	3.35313
1043.72	2.23445
1046.62	0.772275
1049.51	0.259581
1052.4	0.934827
1055.29	0.969098
1058.19	3.0727
1061.08	2.77985
1063.97	1.84416
1066.87	0.85576
1069.76	1.28623
1072.65	0.139796
1075.54	2.23414
1078.43	2.72052
1081.33	1.37599
1084.22	0.314408
1087.11	2.60723
1090.01	1.93349
1092.9	1.67461
1095.79	2.25976
1098.68	1.64177
1101.58	2.03313
1104.47	2.17772
1107.36	1.46801
1110.26	0.517591
1113.15	0.893817
1116.04	0.056068
1118.93	1.38529
1121.83	4.1169
1124.72	1.76622
1127.61	2.82135
1130.5	1.81762
1133.4	0.113226
1136.29	1.32754
1139.18	0.548512
1142.08	2.39562
1144.97	0.940454
1147.86	0.876376
1150.75	0.740191
1153.65	0.652732
1156.54	0.459575
1159.43	2.15122
1162.32	2.31546
1165.22	1.81921
1168.11	1.57449
1171	1.72856
1173.89	0.973743
1176.79	1.06379
1179.68	0.681431
1182.57	1.01945
1185.46	2.13062
1188.36	0.620083
1191.25	1.61457
1194.14	1.61904
1197.04	4.61652
1199.93	2.55667
1202.82	4.24454
1205.71	2.62765
1208.61	5.14389
1211.5	3.70064
1214.39	0.984157
1217.29	1.88705
1220.18	3.5889
1223.07	2.69238
1225.96	3.47191
1228.86	3.32282
1231.75	1.38952
1234.64	0.094356
1237.53	3.44095
1240.43	2.04257
1243.32	0.929024
1246.21	1.93154
1249.11	2.76791
1252	3.39125
1254.89	1.75992
1257.78	1.64812
1260.67	1.21038
1263.57	1.49482
1266.46	0.722813
1269.35	2.0557
1272.25	0.567435
1275.14	3.4318
1278.03	1.67541
1280.92	0.986427
1283.82	1.34772
