Measurement: Raman, 780 nm, unoriented, Raman Data Processed
Mineral: Piypite
Rruff sample: R130048
Ideal chemistry: K_4_Cu^2+^_4_O_2_(S^6+^O_4_)_4_(Na,Cu^1+^)Cl
Locality: Second scoria cone, Northern Breakthrough (North Breach), Great Fissure (Main Fracture) eruption, Tolbachik volcano, Kamchatka Oblast', Far-Eastern Region, Russia
Source: Don Doell
Description: Sprays of bright green acicular crystals
Raman shift (cm-1)	intensity
90.7175	0
94.0923	6.12734
97.4671	3.6662
100.842	0.276558
104.217	0.099197
107.591	1.64549
110.966	0.590588
114.341	1.78305
117.716	1.57557
121.091	2.81554
124.466	2.44876
127.84	2.1799
131.215	1.13868
134.59	1.63082
137.965	1.30077
141.34	0.042755
144.714	0.259995
148.089	0.657391
151.464	3.03624
154.839	2.42735
158.214	3.13683
161.589	3.8859
164.963	4.84109
168.338	5.02114
171.713	3.91747
175.088	3.96468
178.463	4.49012
181.838	5.20439
185.212	5.3144
188.587	4.68697
191.962	5.70569
195.337	6.13368
198.712	4.4632
202.086	3.34801
205.461	3.2379
208.836	2.0036
212.211	2.30344
215.586	1.2827
218.96	1.95641
222.335	1.08669
225.71	1.74409
229.085	1.2227
232.46	1.08387
235.834	2.19769
239.209	3.1995
242.584	2.22831
245.959	1.50331
249.334	2.0493
252.709	0.940399
256.083	0.164978
259.458	1.35994
262.833	0.771599
266.208	0.431042
269.583	0.032295
272.957	0.623091
276.332	1.42352
279.707	0.729385
283.082	0.044027
286.457	0.13166
289.832	1.28113
293.206	1.4923
296.581	0.188999
299.956	0.026609
303.331	0.116894
306.706	0.748056
310.08	0.724167
313.455	0.957327
316.83	0.457602
320.205	0.64464
323.58	0.682215
326.954	1.8987
330.329	0.171446
333.704	0.74168
337.079	0.325274
340.454	0.259771
343.829	0.152584
347.203	0.464045
350.578	0.486392
353.953	0.479191
357.328	1.81436
360.703	0.696653
364.077	1.44102
367.452	0.475169
370.827	0.924692
374.202	1.15127
377.577	1.01804
380.952	0.704014
384.326	0.975053
387.701	1.22468
391.076	0.826012
394.451	0.585649
397.826	1.17541
401.2	1.652
404.575	1.15601
407.95	1.08819
411.325	1.11908
414.7	1.07087
418.075	1.07205
421.449	0.6875
424.824	1.52045
428.199	0.217836
431.574	1.17945
434.949	0.797331
438.323	0.521527
441.698	1.44757
445.073	1.6048
448.448	0.049778
451.823	1.81365
455.197	1.08776
458.572	0.825111
461.947	0.685147
465.322	0.917073
468.697	0.538229
472.072	0.908916
475.446	0.092644
478.821	0.574826
482.196	1.54735
485.571	1.40039
488.946	1.14424
492.32	0.425532
495.695	0.809756
499.07	0.554453
502.445	1.17722
505.82	0.810023
509.195	0.33674
512.569	0.885473
515.944	0.84027
519.319	0.71047
522.694	0.389697
526.068	0.043256
529.443	0.573256
532.818	1.85131
536.193	0.895899
539.568	0.619853
542.943	0.131445
546.317	0.35252
549.692	0.439115
553.067	0.85157
556.442	0.875333
559.817	0.181817
563.192	0.528898
566.566	0.726389
569.941	0.464557
573.316	1.43178
576.691	0.86567
580.066	0.103925
583.44	0.897774
586.815	0.501451
590.19	0.817737
593.565	0.617908
596.94	1.88739
600.314	0.812
603.689	1.95373
607.064	1.76415
610.439	1.06784
613.814	2.90181
617.188	1.32575
620.563	0.60008
623.938	0.319143
627.313	1.48389
630.688	0.721596
634.063	0.624014
637.437	2.01239
640.812	0.607844
644.187	1.32766
647.562	1.37923
650.937	1.47722
654.312	0.441854
657.686	0.938704
661.061	1.23881
664.436	0.972503
667.811	0.43604
671.186	1.56201
674.56	1.54317
677.935	1.68215
681.31	0.614685
684.685	1.67611
688.06	0.342859
691.434	0.071052
694.809	0.735676
698.184	2.17122
701.559	1.25434
704.934	1.57393
708.308	0.814927
711.683	0.867766
715.058	1.12428
718.433	1.17898
721.808	1.44675
725.183	1.46646
728.557	1.28529
731.932	0.795818
735.307	1.54702
738.682	1.23712
742.057	0.418129
745.432	1.09156
748.806	0.317308
752.181	1.01338
755.556	1.61906
758.931	1.15436
762.306	0.260863
765.68	0.015874
769.055	1.23158
772.43	1.59817
775.805	1.08427
779.18	0.970209
782.554	0.122888
785.929	0.963269
789.304	1.71312
792.679	0.81683
796.054	1.10564
799.428	1.57413
802.803	1.21812
806.178	1.4096
809.553	0.589079
812.928	0.854064
816.303	1.12542
819.677	1.45463
823.052	0.717964
826.427	1.43717
829.802	1.27345
833.177	1.70547
836.552	0.852716
839.926	1.36431
843.301	0.75453
846.676	0.069688
850.051	1.23266
853.426	1.47639
856.8	1.33409
860.175	1.61471
863.55	0.841855
866.925	1.25013
870.3	0.625154
873.674	0.914944
877.049	1.49252
880.424	0.870942
883.799	0.962165
887.174	0.729535
890.548	0.68227
893.923	0.9005
897.298	1.27483
900.673	0.831654
904.048	0.962168
907.423	0.776123
910.797	0.774237
914.172	0.464637
917.547	1.95549
920.922	0.432857
924.297	1.38173
927.671	0.711933
931.046	1.79952
934.421	0.031592
937.796	0.491586
941.171	1.05984
944.545	0.580944
947.92	1.07179
951.295	0.277784
954.67	0.232934
958.045	0.70457
961.42	1.80591
964.794	1.14306
968.169	1.50328
971.544	1.69145
974.919	2.61785
978.294	4.34605
981.668	7.41855
985.043	9.49308
988.418	7.95431
991.793	4.18383
995.168	2.92997
998.543	2.15904
1001.92	0.929248
1005.29	1.53642
1008.67	1.37151
1012.04	0.530999
1015.42	1.76508
1018.79	3.13018
1022.17	0.742329
1025.54	1.30413
1028.92	0.180809
1032.29	0.068501
1035.67	1.39163
1039.04	0.246635
1042.41	0.006042
1045.79	0.37093
1049.16	0.209269
1052.54	0.326698
1055.91	0.251375
1059.29	1.56152
1062.66	0.959089
1066.04	0.638034
1069.41	0.465324
1072.79	0.978407
1076.16	0.73793
1079.54	0.380136
1082.91	1.19532
1086.29	0.375577
1089.66	1.04199
1093.04	1.16954
1096.41	1.02155
1099.79	1.20682
1103.16	0.728806
1106.54	1.58401
1109.91	1.16593
1113.29	1.01125
1116.66	0.100179
1120.04	1.06036
1123.41	0.59554
1126.79	0.010132
1130.16	1.53912
1133.54	0.210762
1136.91	0.593816
1140.29	1.09369
1143.66	0.201329
1147.03	1.33559
1150.41	0.785604
1153.78	0.273105
1157.16	1.01602
1160.53	1.56869
1163.91	0.725416
1167.28	0.567421
1170.66	1.42777
1174.03	1.26453
1177.41	1.24249
1180.78	1.23636
1184.16	1.22786
1187.53	2.1967
1190.91	3.34712
1194.28	1.9888
1197.66	1.45626
1201.03	1.18033
1204.41	1.91922
1207.78	0.519899
1211.16	1.55068
1214.53	1.38424
1217.91	2.23177
1221.28	1.60529
1224.65	0.746858
1228.03	1.74471
1231.4	0.115872
1234.78	1.73708
1238.15	1.39266
1241.53	1.01111
1244.9	0.758437
1248.28	0.186688
1251.65	0.743202
1255.03	0.973883
1258.4	1.59486
1261.78	0.2467
1265.15	1.14719
1268.53	0.979759
1271.9	0.945201
1275.28	2.05078
1278.65	1.60341
1282.03	0.423788
