Measurement: Raman, 780 nm, unoriented, Raman Data Processed
Mineral: Plancheite
Rruff sample: R070233
Ideal chemistry: Cu^2+^_8_(Si_4_O_11_)_2_(OH)_4_H_2_O
Locality: Tsumeb mine, Tsumeb, Otavi District, Oshikoto, Namibia
Source: Michael Scott
Description: Light blue radial fibrous, chatoyant crystals with drusy malachite
Raman shift (cm-1)	intensity
101.728	0
105.103	1.37219
108.478	4.95471
111.852	1.30725
115.227	6.34631
118.602	6.63586
121.977	9.93921
125.352	3.98364
128.726	4.11157
132.101	2.75586
135.476	3.19983
138.851	7.41162
142.226	1.75159
145.601	6.33301
148.975	8.07715
152.35	7.3761
155.725	6.6825
159.1	7.21887
162.475	6.60864
165.85	3.01355
169.224	2.36621
172.599	2.94641
175.974	6.8949
179.349	4.39062
182.724	5.85522
186.098	3.6709
189.473	7.28149
192.848	12.2385
196.223	10.106
199.598	14.8306
202.972	15.142
206.347	18.6617
209.722	18.6212
213.097	18.0593
216.472	14.6431
219.847	11.9083
223.221	14.5458
226.596	12.6652
229.971	12.9113
233.346	14.0775
236.721	10.4858
240.095	15.6351
243.47	9.94397
246.845	10.8534
250.22	6.78198
253.595	8.20129
256.969	8.02356
260.344	8.10449
263.719	4.36426
267.094	2.67175
270.469	2.2478
273.844	1.51978
277.218	6.46295
280.593	0.966858
283.968	2.13721
287.343	0.915222
290.718	2.00049
294.092	1.36511
297.467	1.44385
300.842	1.95947
304.217	0.151672
307.592	1.02325
310.967	3.94135
314.341	2.19842
317.716	2.25006
321.091	1.95972
324.466	5.73132
327.841	1.30591
331.216	1.43152
334.59	5.92883
337.965	3.38178
341.34	6.78601
344.715	2.10852
348.09	5.7113
351.464	5.0863
354.839	1.26947
358.214	0.711609
361.589	0.66272
364.964	0.834473
368.339	1.17914
371.713	4.41998
375.088	2.23602
378.463	0.444458
381.838	3.14459
385.213	3.98267
388.587	4.43909
391.962	5.70642
395.337	4.53796
398.712	0.397949
402.087	4.768
405.462	3.08124
408.836	3.18182
412.211	0.494934
415.586	6.3562
418.961	5.89282
422.336	7.72144
425.71	8.0766
429.085	9.27093
432.46	7.98358
435.835	10.8994
439.21	9.21332
442.584	10.1843
445.959	9.94312
449.334	8.44885
452.709	3.47778
456.084	6.841
459.459	4.82904
462.833	4.88825
466.208	4.59174
469.583	3.56134
472.958	5.35632
476.333	5.79541
479.707	3.66894
483.082	5.36224
486.457	3.81274
489.832	5.27142
493.207	1.60895
496.582	5.18732
499.956	2.61224
503.331	4.81665
506.706	0.160217
510.081	1.76617
513.456	4.20679
516.83	4.53607
520.205	3.55603
523.58	0.326904
526.955	3.91724
530.33	0.309204
533.705	1.2395
537.079	1.31543
540.454	0.790222
543.829	1.20215
547.204	1.87524
550.579	1.72595
553.953	4.61505
557.328	1.79907
560.703	4.65527
564.078	1.62622
567.453	4.1723
570.827	1.98541
574.202	0.72937
577.577	0.482849
580.952	0.431274
584.327	1.60913
587.702	0.110596
591.076	1.81439
594.451	3.99725
597.826	2.48273
601.201	3.14954
604.576	3.41833
607.951	3.26446
611.325	1.88141
614.7	1.11102
618.075	2.58575
621.45	1.03815
624.825	4.4682
628.199	4.15881
631.574	4.31451
634.949	5.49036
638.324	7.26532
641.699	9.48035
645.073	8.19342
648.448	13.8209
651.823	13.7987
655.198	13.0065
658.573	13.599
661.948	16.1452
665.322	15.0256
668.697	19.3542
672.072	15.4142
675.447	16.2924
678.822	9.7431
682.197	7.70453
685.571	1.90875
688.946	2.09869
692.321	4.5683
695.696	0.843933
699.071	1.93298
702.445	0.695007
705.82	0.979919
709.195	1.63165
712.57	6.31635
715.945	4.54547
719.319	2.3291
722.694	0.433655
726.069	2.10571
729.444	3.13757
732.819	1.34479
736.193	3.09228
739.568	0.132385
742.943	1.7854
746.318	2.95801
749.693	1.15155
753.068	2.30933
756.442	2.4455
759.817	1.42725
763.192	1.15949
766.567	3.19208
769.942	0.376099
773.317	2.96759
776.691	1.44427
780.066	2.09509
783.441	4.63055
786.816	2.01166
790.191	2.84125
793.565	0.300964
796.94	3.29785
800.315	6.5022
803.69	3.15967
807.065	6.284
810.439	4.03101
813.814	0.930786
817.189	5.48871
820.564	5.40472
823.939	3.41571
827.314	3.74072
830.688	5.32935
834.063	5.74689
837.438	6.77631
840.813	7.77911
844.188	4.54694
847.562	2.55103
850.937	5.56677
854.312	1.7782
857.687	4.83185
861.062	5.12524
864.437	2.6864
867.811	3.44531
871.186	7.13763
874.561	6.17993
877.936	2.19702
881.311	3.11938
884.686	2.73908
888.06	0.62384
891.435	1.21899
894.81	0.432129
898.185	0.426453
901.56	0.826782
904.934	0.034241
908.309	1.70599
911.684	1.35004
915.059	2.59405
918.434	2.86298
921.808	6.0426
925.183	2.80298
928.558	2.56519
931.933	4.9895
935.308	2.53815
938.683	1.32306
942.057	3.81915
945.432	4.42578
948.807	3.30011
952.182	2.76679
955.557	5.5589
958.932	4.31171
962.306	4.15076
965.681	5.47943
969.056	5.35681
972.431	3.6037
975.806	0.465881
979.18	0.497559
982.555	0.707886
985.93	2.53113
989.305	5.11151
992.68	2.65472
996.054	2.97131
999.429	4.21466
1002.8	1.7027
1006.18	0.898743
1009.55	5.505
1012.93	1.63281
1016.3	3.83374
1019.68	3.06244
1023.05	3.13867
1026.43	3.16284
1029.8	2.34222
1033.18	8.68335
1036.55	5.60382
1039.93	1.72784
1043.3	2.17957
1046.68	5.27026
1050.05	4.87793
1053.43	3.61054
1056.8	5.54236
1060.18	6.23981
1063.55	1.6626
1066.93	5.88556
1070.3	2.67706
1073.67	3.2851
1077.05	4.75971
1080.42	5.79071
1083.8	2.89771
1087.17	0.801636
1090.55	5.18451
1093.92	5.10101
1097.3	0.327454
1100.67	0.019165
1104.05	1.36255
1107.42	2.54804
1110.8	0.607971
1114.17	0.226074
1117.55	1.25995
1120.92	0.817505
1124.3	4.03906
1127.67	2.41449
1131.05	1.96124
1134.42	2.87476
1137.8	3.04718
1141.17	1.13214
1144.55	1.26007
1147.92	4.84418
1151.3	2.9895
1154.67	7.63257
1158.05	2.16132
1161.42	4.18884
1164.8	3.89642
1168.17	5.2038
1171.55	5.93445
1174.92	4.1322
1178.3	4.65472
1181.67	6.51984
1185.04	6.02386
1188.42	5.5661
1191.79	8.04321
1195.17	9.06543
1198.54	7.92542
1201.92	7.80572
1205.29	7.60663
1208.67	5.28223
1212.04	4.78656
1215.42	4.77264
1218.79	4.89508
1222.17	3.59613
1225.54	2.2605
1228.92	2.27783
1232.29	4.09515
1235.67	2.47424
1239.04	3.24939
1242.42	0.219482
1245.79	4.06335
1249.17	2.76178
1252.54	2.21082
1255.91	4.2146
1259.29	5.08258
1262.66	4.93115
1266.04	6.83728
1269.41	3.70252
1272.79	0.120361
1276.16	2.1347
1279.54	1.01196
1282.91	1.34662
