Measurement: Raman, 532 nm, unoriented, Raman Data RAW
Mineral: Platinum
Rruff sample: R110126
Ideal chemistry: Pt
Locality: Tambiano River, Riampinang, Kalimantan Selatan Province, Borneo Island, Indonesia
Source: Mark N Feinglos
Description: Small silver water-worn nuggets associated with laurite R110120
Raman shift (cm-1)	intensity
198.004	217.668
200.897	217.846
203.79	222.023
206.682	221.637
209.575	220.927
212.468	218.702
215.36	217.814
218.253	224.142
221.146	223.733
224.038	223.194
226.931	222.584
229.824	223.739
232.717	222.786
235.609	223.711
238.502	220.477
241.395	223.959
244.287	224.651
247.18	224.092
250.073	225.107
252.965	226.508
255.858	225.671
258.751	226.663
261.644	226.727
264.536	227.481
267.429	227.209
270.322	228.193
273.214	229.709
276.107	230.381
279	230.665
281.892	234.075
284.785	234.049
287.678	237.853
290.571	240.653
293.463	237.013
296.356	234.199
299.249	235.643
302.141	235.213
305.034	235.914
307.927	233.59
310.82	235.86
313.712	234.264
316.605	234.654
319.498	232.955
322.39	235.441
325.283	234.126
328.176	234.433
331.068	233.259
333.961	235.377
336.854	234.02
339.747	236.714
342.639	234.881
345.532	230.802
348.425	233.488
351.317	230.306
354.21	234.92
357.103	235.376
359.995	239.026
362.888	233.057
365.781	235.531
368.673	236.796
371.566	233.402
374.459	236.112
377.352	231.266
380.244	237.898
383.137	236.39
386.03	235.978
388.922	235.453
391.815	237.984
394.708	239.623
397.601	238.536
400.493	239.851
403.386	240.888
406.279	240.676
409.171	240.437
412.064	241.223
414.957	238.367
417.849	242.321
420.742	238.87
423.635	238.017
426.527	239.058
429.42	240.318
432.313	238.563
435.206	238.27
438.098	238.268
440.991	238.313
443.884	236.906
446.776	239.643
449.669	236.023
452.562	236.54
455.454	238.273
458.347	237.954
461.24	238.217
464.133	239.454
467.025	237.663
469.918	238.385
472.811	237.912
475.703	238.783
478.596	236.664
481.489	242.456
484.382	239.604
487.274	240.682
490.167	238.986
493.06	240.787
495.952	242.384
498.845	239.867
501.738	241.466
504.63	239.819
507.523	241.469
510.416	241.869
513.308	242.759
516.201	242.432
519.094	241.384
521.987	239.532
524.879	242.805
527.772	240.743
530.665	243.214
533.557	242.303
536.45	239.568
539.343	243.125
542.236	241.823
545.128	244.52
548.021	239.951
550.914	244.047
553.806	244.803
556.699	244.505
559.592	245.358
562.484	245.6
565.377	243.531
568.27	244.336
571.163	245.676
574.055	244.754
576.948	247.09
579.841	246.584
582.733	243.553
585.626	244.556
588.519	244.622
591.411	245.564
594.304	245.353
597.197	245.757
600.09	246.54
602.982	247.943
605.875	247.749
608.768	247.448
611.66	249.798
614.553	244.825
617.446	247.987
620.338	249.219
623.231	247.966
626.124	246.953
629.016	250.246
631.909	248.804
634.802	249.639
637.695	251.706
640.587	252.075
643.48	253.65
646.373	252.667
649.265	251.193
652.158	252.56
655.051	254.115
657.943	255.473
660.836	251.971
663.729	257.058
666.622	255.182
669.514	257.358
672.407	255.054
675.3	255.165
678.192	257.15
681.085	256.663
683.978	256.689
686.87	259.884
689.763	258.346
692.656	254.962
695.549	254.833
698.441	257.101
701.334	259.151
704.227	253.509
707.119	256.566
710.012	255.5
712.905	254.232
715.798	252.101
718.69	255.042
721.583	255.828
724.476	254.225
727.368	253.252
730.261	254.258
733.154	253.202
736.046	251.403
738.939	255.22
741.832	252.665
744.725	251.415
747.617	251.981
750.51	252.345
753.403	251.22
756.295	253.667
759.188	251.62
762.081	251.212
764.973	253.159
767.866	252.578
770.759	249.88
773.652	253.208
776.544	253.386
779.437	252.849
782.33	251.94
785.222	251.87
788.115	250.559
791.008	251.497
793.9	253.076
796.793	254.607
799.686	252.653
802.578	255.021
805.471	252.38
808.364	253.065
811.257	253.637
814.149	256.377
817.042	255.204
819.935	254.757
822.827	259.309
825.72	255.654
828.613	255.601
831.505	257.33
834.398	257.581
837.291	257.513
840.184	254.949
843.076	258.356
845.969	258.245
848.862	255.523
851.754	256.221
854.647	256.399
857.54	259.619
860.433	257.847
863.325	258.063
866.218	258.681
869.111	256.109
872.003	258.698
874.896	259.263
877.789	258.078
880.681	257.006
883.574	257.34
886.467	258.666
889.36	259.924
892.252	262.205
895.145	260.194
898.038	260.718
900.93	258.837
903.823	261.436
906.716	260.636
909.608	265.467
912.501	262.536
915.394	262.309
918.287	264.331
921.179	265.306
924.072	265.688
926.965	265.63
929.857	266.543
932.75	264.733
935.643	266.189
938.535	267.15
941.428	269.794
944.321	265.056
947.213	267.002
950.106	266.775
952.999	265.934
955.892	266.5
958.784	267.933
961.677	267.415
964.57	268.512
967.462	269.605
970.355	270.33
973.248	267.714
976.14	271.013
979.033	273.956
981.926	271.163
984.819	275.746
987.711	274.2
990.604	277.837
993.497	276.06
996.389	273.825
999.282	274.039
1002.17	275.98
1005.07	272.296
1007.96	274.521
1010.85	273.94
1013.75	275.139
1016.64	275.027
1019.53	273.478
1022.42	274.865
1025.32	274.673
1028.21	274.569
1031.1	275.526
1033.99	278.414
1036.89	278.743
1039.78	278.028
1042.67	279.748
1045.57	283.696
1048.46	292.022
1051.35	291.4
1054.24	289.009
1057.14	282.132
1060.03	283
1062.92	283.617
1065.81	280.589
1068.71	280.764
1071.6	280.763
1074.49	280.927
1077.38	279.598
1080.28	278.621
1083.17	282.061
1086.06	281.78
1088.96	281.908
1091.85	281.616
1094.74	283.895
1097.63	281.221
1100.53	285.078
1103.42	284.108
1106.31	282.626
1109.2	283.81
1112.1	285.081
1114.99	284.098
1117.88	285.366
1120.78	284.286
1123.67	284.645
1126.56	287.487
1129.45	284.095
1132.35	286.489
1135.24	287.699
1138.13	287.795
1141.02	288.712
1143.92	286.299
1146.81	285.56
1149.7	287.737
1152.6	287.11
1155.49	289.121
1158.38	287.55
1161.27	287.125
1164.17	291.302
1167.06	291.127
1169.95	288.319
1172.84	292.43
1175.74	288.839
1178.63	291.352
1181.52	290.676
1184.41	292.174
1187.31	291.716
1190.2	293.253
1193.09	293.223
1195.99	293.86
1198.88	295.623
1201.77	294.856
1204.66	295.228
1207.56	299.605
1210.45	298.605
1213.34	298.634
1216.23	296.67
1219.13	299.434
1222.02	296.696
1224.91	299.925
1227.81	300.83
1230.7	299.72
1233.59	298.456
1236.48	301.571
1239.38	299.836
1242.27	300.184
1245.16	303.457
1248.05	304.198
1250.95	303.841
1253.84	305.164
1256.73	304.776
1259.62	308.086
1262.52	308.476
1265.41	308.296
1268.3	310.46
1271.2	309.97
1274.09	311.821
1276.98	311.255
1279.87	310.455
1282.77	314.987
1285.66	314.056
1288.55	317.204
1291.44	317.065
1294.34	319.438
1297.23	319.281
1300.12	319.355
1303.02	319.896
