Measurement: Raman, 785 nm, unoriented, Raman Data Processed
Mineral: Platinum
Rruff sample: R060750
Ideal chemistry: Pt
Locality: Bear Creek, near Nyak, Alaska, USA
Source: Michael Scott
Description: Silver metallic water-worn nuggets
Raman shift (cm-1)	intensity
182.275	5104.03
185.167	4937.47
188.06	4706.85
190.953	4593.53
193.846	4309.54
196.738	4387.41
199.631	4238.12
202.524	4225.23
205.416	4008.15
208.309	3856.27
211.202	3774.42
214.094	3754.85
216.987	3773.7
219.88	3681.65
222.773	3659.68
225.665	3629.5
228.558	3582.08
231.451	3522.91
234.343	3570.37
237.236	3484.85
240.129	3526.02
243.021	3609.77
245.914	3569.6
248.807	3724.57
251.699	3859.67
254.592	3890.6
257.485	3698.3
260.378	3549.95
263.27	3526.04
266.163	3318.78
269.056	3357.14
271.948	3316.84
274.841	3259.25
277.734	3228.95
280.626	3237.17
283.519	3397.34
286.412	3283.98
289.305	3198.87
292.197	3175.92
295.09	3232.94
297.983	3274.93
300.875	3266.39
303.768	3314.6
306.661	3274.23
309.553	3246.88
312.446	3203.12
315.339	3244.49
318.232	3197.34
321.124	3123.79
324.017	3079.63
326.91	3198.76
329.802	3243.52
332.695	3223.31
335.588	3217
338.48	3274.66
341.373	3332.01
344.266	3340.47
347.159	3274.98
350.051	3312.72
352.944	3165.01
355.837	3163.53
358.729	3077.2
361.622	3166.07
364.515	3102.84
367.408	3102.32
370.3	3185.01
373.193	3179.26
376.086	3192.2
378.978	3203.71
381.871	3172.98
384.764	3140.65
387.656	3112.53
390.549	3033.11
393.442	3035.58
396.335	3022.62
399.227	3114.66
402.12	3094.19
405.013	3067.51
407.905	3131.06
410.798	3127.43
413.691	3132.51
416.583	3144.4
419.476	3234.49
422.369	3070.71
425.262	3093.07
428.154	3102.59
431.047	3088.59
433.94	3084.73
436.832	3075.15
439.725	3024.43
442.618	3052.58
445.51	3086.37
448.403	3116.24
451.296	3113.22
454.189	3098.66
457.081	3099.12
459.974	3053.05
462.867	3015.69
465.759	3057.38
468.652	3092.98
471.545	3023.83
474.437	3018.28
477.33	3102.13
480.223	3001.02
483.116	3037.45
486.008	3018.32
488.901	3058.5
491.794	3076.75
494.686	3138.37
497.579	3064.17
500.472	3038.53
503.364	3089.07
506.257	3100.52
509.15	3049.11
512.042	3062.97
514.935	3065.69
517.828	3105.1
520.721	3086.2
523.613	3039.03
526.506	2989.49
529.399	3027.67
532.291	3021.87
535.184	2933.62
538.077	2995.41
540.969	3047.7
543.862	3034.21
546.755	3053.34
549.648	3044.44
552.54	3002.45
555.433	3101.22
558.326	2980.03
561.218	3026.12
564.111	3012.99
567.004	2979.49
569.896	2889.97
572.789	2905.16
575.682	2950.78
578.575	3045.17
581.467	3029.65
584.36	3065.81
587.253	3061.43
590.145	3050.27
593.038	3014.71
595.931	3004.69
598.823	3061.3
601.716	2952.2
604.609	3012.9
607.502	3049.28
610.394	2998.32
613.287	2979.14
616.18	3053.66
619.072	2977.49
621.965	2920.95
624.858	2940.98
627.75	3032.02
630.643	3066.95
633.536	3001.13
636.429	3066.79
639.321	3054.54
642.214	3027.68
645.107	3005.1
647.999	2977.25
650.892	2959.62
653.785	2959.83
656.677	2995.91
659.57	2991.68
662.463	2986.03
665.356	2994.6
668.248	3048.52
671.141	3034.5
674.034	3016.84
676.926	2944.66
679.819	3055.74
682.712	3014.99
685.604	3008.85
688.497	2972.84
691.39	2935.84
694.283	2918.45
697.175	2991.49
700.068	2967.79
702.961	3031.29
705.853	2873.3
708.746	2986.45
711.639	2995.32
714.531	2941.82
717.424	2929.18
720.317	2955.38
723.21	2985.51
726.102	2944.66
728.995	2963.9
731.888	2959.54
734.78	2921.14
737.673	2923.53
740.566	2976.97
743.458	2940.5
746.351	2781.28
749.244	2909.14
752.137	3005.3
755.029	2890.89
757.922	2907.84
760.815	2913.78
763.707	2942.19
766.6	2822.68
769.493	2846.97
772.385	2852.72
775.278	2779.73
778.171	2855.46
781.064	2910.95
783.956	2902.09
786.849	2851.11
789.742	2898.11
792.634	2905.16
795.527	2893.64
798.42	2824.69
801.312	2785.44
804.205	2777.35
807.098	2842.39
809.991	2838.45
812.883	2836.15
815.776	2834.68
818.669	2811
821.561	2872
824.454	2860.17
827.347	2885.47
830.24	2822.66
833.132	2889.9
836.025	2884.7
838.917	2851.04
841.81	2811.47
844.703	2879.47
847.596	2865.27
850.488	2861.35
853.381	2814.73
856.274	2842.66
859.166	2813.54
862.059	2821.92
864.952	2815.18
867.844	2789.66
870.737	2813.21
873.63	2814.65
876.523	2812.78
879.415	2811.66
882.308	2811.63
885.201	2792.91
888.093	2791.96
890.986	2795.55
893.879	2800.07
896.771	2793.3
899.664	2843.58
902.557	2824.16
905.45	2785.5
908.342	2760.96
911.235	2848.33
914.128	2799.69
917.02	2799.94
919.913	2800.79
922.806	2794.37
925.698	2787.79
928.591	2758.37
931.484	2771.1
934.377	2753.49
937.269	2814.61
940.162	2776.46
943.055	2796.88
945.947	2722.82
948.84	2741.8
951.733	2781.15
954.625	2798.46
957.518	2790.19
960.411	2801.97
963.304	2713.15
966.196	2696.25
969.089	2748.69
971.982	2729.64
974.875	2783.83
977.767	2762.56
980.66	2779.16
983.553	2727.11
986.445	2686.86
989.338	2696.93
992.231	2680.77
995.123	2544.95
998.016	2731.02
1000.91	2773.24
1003.8	2729.72
1006.69	2767.9
1009.59	2717.66
1012.48	2758.43
1015.37	2737.44
1018.26	2729.33
1021.16	2762.52
1024.05	2692.55
1026.94	2627.69
1029.84	2678.95
1032.73	2760.66
1035.62	2750.95
1038.51	2818.75
1041.41	2735.53
1044.3	2746.8
1047.19	2681.45
1050.09	2746.18
1052.98	2816.93
1055.87	2743.06
1058.76	2749.18
1061.66	2737.2
1064.55	2689.22
1067.44	2732.28
1070.33	2644.53
1073.23	2751.3
1076.12	2675.51
1079.01	2681.09
1081.9	2702.96
1084.8	2655.32
1087.69	2683.17
1090.58	2749.38
1093.47	2737.41
1096.37	2758.22
1099.26	2714.58
1102.15	2710.75
1105.05	2676.99
1107.94	2669.04
1110.83	2686.52
1113.72	2681.14
1116.62	2674.61
1119.51	2615.49
1122.4	2728.94
1125.3	2695.04
1128.19	2778.44
1131.08	2646.8
1133.97	2716.95
1136.87	2615.57
1139.76	2615.44
1142.65	2623.67
1145.54	2596.75
1148.44	2630.04
1151.33	2666.97
1154.22	2673.75
1157.12	2651.72
1160.01	2699.32
1162.9	2624.78
1165.79	2584.41
1168.68	2658.29
1171.58	2660.59
1174.47	2663.71
1177.36	2668.05
1180.26	2664.65
1183.15	2610.32
1186.04	2683.02
1188.93	2666.3
1191.83	2612.21
1194.72	2615.23
1197.61	2585.62
1200.51	2643.23
1203.4	2662.23
1206.29	2651.77
1209.18	2633.87
1212.08	2628.97
1214.97	2670.17
1217.86	2642.35
1220.75	2648.43
1223.65	2652.71
1226.54	2634.6
1229.43	2656.41
1232.33	2608.79
1235.22	2610.18
1238.11	2511.76
1241	2536.99
1243.9	2609.24
1246.79	2663.74
1249.68	2617.35
1252.57	2644.35
1255.47	2633.39
1258.36	2612.31
1261.25	2650.71
1264.14	2611.18
1267.04	2638.34
1269.93	2582.68
1272.82	2611.67
