Measurement: Raman, 780 nm, unoriented, Raman Data RAW
Mineral: Platinum
Rruff sample: R110126
Ideal chemistry: Pt
Locality: Tambiano River, Riampinang, Kalimantan Selatan Province, Borneo Island, Indonesia
Source: Mark N Feinglos
Description: Small silver water-worn nuggets associated with laurite R110120
Raman shift (cm-1)	intensity
102.692	1055.87
106.067	1023.99
109.442	984.668
112.817	960.116
116.192	945.809
119.566	924.746
122.941	925.433
126.316	909.43
129.691	903.603
133.066	892.418
136.44	891.106
139.815	890.58
143.19	860.129
146.565	830.735
149.94	805.246
153.315	795.485
156.689	781.775
160.064	768.436
163.439	764.433
166.814	750.147
170.189	738.881
173.563	734.464
176.938	724.807
180.313	718.37
183.688	714.52
187.063	710.334
190.437	705.144
193.812	697.163
197.187	695.907
200.562	688.414
203.937	683.758
207.311	684.168
210.686	679.808
214.061	675.057
217.436	673.143
220.811	667.202
224.186	669.363
227.56	666.201
230.935	660.471
234.31	663.344
237.685	660.58
241.06	655.002
244.435	656.285
247.809	656.408
251.184	653.885
254.559	647.432
257.934	644.049
261.309	648.276
264.683	643.617
268.058	643.776
271.433	639.552
274.808	636.991
278.183	637.872
281.558	640.973
284.932	634.672
288.307	635.272
291.682	635.834
295.057	625.708
298.432	625.845
301.806	619.477
305.181	621.935
308.556	619.495
311.931	613.88
315.306	614.396
318.68	609.794
322.055	612.242
325.43	609.29
328.805	607.457
332.18	600.218
335.555	604.232
338.929	605.866
342.304	598.512
345.679	591.621
349.054	597.052
352.429	591.126
355.803	594.965
359.178	589.836
362.553	590.027
365.928	587.976
369.303	592.131
372.678	586.717
376.052	584.569
379.427	580.263
382.802	578.01
386.177	579.971
389.552	581.875
392.926	573.652
396.301	577.984
399.676	572.793
403.051	575.005
406.426	574.392
409.8	572.452
413.175	571.763
416.55	569.884
419.925	566.782
423.3	565.379
426.675	567.531
430.049	562.484
433.424	565.964
436.799	563.322
440.174	562.211
443.549	561.054
446.923	561.278
450.298	557.337
453.673	563.678
457.048	555.789
460.423	557.698
463.798	556.445
467.172	550.536
470.547	551.119
473.922	552.537
477.297	547.102
480.672	549.754
484.046	550.448
487.421	544.103
490.796	542.445
494.171	543.502
497.546	540.302
500.921	534.676
504.295	537.97
507.67	536.924
511.045	535.733
514.42	531.64
517.795	530.394
521.169	527.321
524.544	524.467
527.919	523.186
531.294	522.425
534.669	521.723
538.044	525.596
541.418	518.417
544.793	518.839
548.168	514.85
551.543	513.995
554.918	516.793
558.293	511.254
561.667	514.482
565.042	510.548
568.417	509.936
571.792	505.384
575.167	507.203
578.541	508.29
581.916	501.807
585.291	500.941
588.666	499.484
592.041	502.318
595.415	497.922
598.79	500.034
602.165	502.442
605.54	499.794
608.915	495.213
612.29	494.381
615.664	492.748
619.039	493.878
622.414	494.634
625.789	496.06
629.164	494.963
632.538	491.788
635.913	490.712
639.288	487.442
642.663	490.251
646.038	486.282
649.413	485.135
652.787	482.354
656.162	481.171
659.537	481.128
662.912	481.996
666.287	477.284
669.661	479.149
673.036	475.552
676.411	475.455
679.786	473.779
683.161	476.389
686.535	472.473
689.91	467.098
693.285	469.229
696.66	468.57
700.035	470.126
703.41	469.224
706.784	466.194
710.159	466.307
713.534	464.331
716.909	467.181
720.284	462.299
723.659	461.855
727.033	462.603
730.408	463.339
733.783	462.374
737.158	459.447
740.533	459.547
743.907	459.318
747.282	458.713
750.657	462.106
754.032	453.699
757.407	454.488
760.782	454.962
764.156	452.37
767.531	456.791
770.906	458.651
774.281	452.404
777.656	451.144
781.03	453.471
784.405	447.571
787.78	447.254
791.155	449.273
794.53	457.677
797.904	450.442
801.279	446.842
804.654	449.005
808.029	451.932
811.404	453.483
814.779	444.26
818.153	449.201
821.528	448.575
824.903	444.688
828.278	443.674
831.653	443.246
835.028	439.569
838.402	443.912
841.777	441.548
845.152	437.904
848.527	440.417
851.902	442.15
855.276	437.697
858.651	437.651
862.026	437.995
865.401	436.424
868.776	438.497
872.15	432.662
875.525	431.649
878.9	432.671
882.275	430.293
885.65	431.456
889.024	429.277
892.399	429.01
895.774	426.08
899.149	428.399
902.524	428.898
905.899	429.048
909.273	426.964
912.648	429.684
916.023	426.899
919.398	423.643
922.773	426.172
926.148	424.283
929.522	419.769
932.897	425.698
936.272	421.259
939.647	422.13
943.022	420.827
946.396	422.169
949.771	421.307
953.146	419.818
956.521	423.372
959.896	422.67
963.27	420.146
966.645	420.704
970.02	421.386
973.395	415.514
976.77	416.363
980.145	417.864
983.519	417.706
986.894	414.384
990.269	420.216
993.644	416.821
997.019	415.186
1000.39	421.959
1003.77	416.039
1007.14	417.472
1010.52	417.272
1013.89	415.819
1017.27	418.512
1020.64	415.977
1024.02	416.277
1027.39	415.721
1030.77	414.644
1034.14	413.297
1037.52	416.77
1040.89	422.41
1044.27	420.003
1047.64	419.487
1051.02	419.399
1054.39	416.608
1057.77	413.831
1061.14	417.964
1064.52	413.774
1067.89	415.287
1071.27	411.334
1074.64	411.119
1078.01	413.895
1081.39	410.663
1084.76	412.267
1088.14	413.99
1091.51	412.899
1094.89	414.26
1098.26	410.411
1101.64	408.034
1105.01	411.765
1108.39	411.695
1111.76	411.897
1115.14	409.466
1118.51	408.857
1121.89	410.344
1125.26	408.309
1128.64	412.339
1132.01	411.324
1135.39	408.856
1138.76	413.448
1142.14	415.571
1145.51	414.78
1148.88	413.261
1152.26	413.134
1155.63	414.686
1159.01	412.255
1162.38	412.515
1165.76	411.05
1169.13	412.965
1172.51	411.906
1175.88	414.516
1179.26	415.202
1182.63	414.024
1186.01	415.672
1189.38	420.141
1192.76	421.576
1196.13	419.835
1199.51	419.228
1202.88	418.753
1206.26	415.899
1209.63	420.9
1213.01	416.483
1216.38	417.821
1219.76	423.102
1223.13	418.814
1226.51	422.258
1229.88	420.158
1233.26	425.184
1236.63	432.403
1240.01	415.963
1243.38	420.145
1246.76	424.24
1250.13	420.721
1253.51	421.928
1256.88	427.475
1260.25	427.345
1263.63	430.842
1267	432.745
1270.38	428.502
1273.75	430.738
1277.13	433.831
1280.5	434.542
1283.88	442.506
