Measurement: Raman, 780 nm, unoriented, Raman Data Processed
Mineral: Plattnerite
Rruff sample: R070605
Ideal chemistry: Pb^4+^O_2_
Locality: Ojuela mine, Mapimi, Durango, Mexico
Source: James Shigley
Description: Black tarnished metallic prismatic crystals.
Measured chemistry: Pb_1.00_O_2_
Raman shift (cm-1)	intensity
151.712	0
154.605	159.336
157.498	83.9023
160.39	86.5742
163.283	249.361
166.176	228.673
169.068	332.241
171.961	271.918
174.854	279.787
177.746	235.636
180.639	7.50098
183.532	6.13965
186.424	3.00781
189.317	23.2285
192.21	114.406
195.103	25.833
197.995	65.3897
200.888	0.958008
203.781	95.124
206.673	201.302
209.566	294.894
212.459	658.6
215.351	851.354
218.244	1039.68
221.137	1201.68
224.03	1323.78
226.922	1356.81
229.815	1301.23
232.708	1301.93
235.6	1188.15
238.493	1135.15
241.386	986.816
244.279	786.609
247.171	726.912
250.064	632.255
252.957	594.199
255.849	534.723
258.742	474.783
261.635	528.556
264.527	501.306
267.42	561.454
270.313	545.475
273.205	576.692
276.098	645.297
278.991	675.948
281.884	730.533
284.776	730.523
287.669	834.948
290.562	885.275
293.454	924.477
296.347	1044.54
299.24	1182.83
302.132	1274.79
305.025	1370.16
307.918	1489.63
310.811	1659.51
313.703	1749.13
316.596	1930.89
319.489	1908.41
322.381	1904.64
325.274	1708.66
328.167	1596.41
331.06	1451.94
333.952	1163.26
336.845	1044.62
339.738	843.431
342.63	712.025
345.523	497.269
348.416	357.956
351.308	145.991
354.201	131.328
357.094	24.8252
359.986	70.6103
362.879	14.5586
365.772	13.6416
368.665	40.7978
371.557	17.2432
374.45	16.957
377.343	119.926
380.235	46.0166
383.128	224.764
386.021	377.96
388.913	465.647
391.806	523.407
394.699	769.464
397.592	830.955
400.484	906.775
403.377	1058.88
406.27	1053.13
409.162	1239.79
412.055	1282.08
414.948	1317.25
417.841	1337.39
420.733	1203.32
423.626	1160.85
426.519	1168.34
429.411	1103.02
432.304	1076.7
435.197	1011.88
438.089	951.369
440.982	895.905
443.875	780.953
446.767	673.128
449.66	703.115
452.553	617.095
455.446	544.725
458.338	432.618
461.231	351.282
464.124	225.275
467.016	163.225
469.909	71.3208
472.802	108.551
475.695	7.37988
478.587	32.6821
481.48	31.602
484.373	60.3457
487.265	27.2539
490.158	18.7017
493.051	113.28
495.943	118.757
498.836	124.214
501.729	144.825
504.622	269.036
507.514	266.053
510.407	313.938
513.3	365.746
516.192	377.247
519.085	440.29
521.978	480.762
524.87	432.651
527.763	442.48
530.656	471.276
533.548	481.038
536.441	392.37
539.334	368.921
542.227	360.459
545.119	293.581
548.012	283.141
550.905	209.969
553.797	319.87
556.69	309.817
559.583	362.392
562.476	416.714
565.368	459.253
568.261	603.039
571.154	764.218
574.046	870.703
576.939	949.167
579.832	1003.36
582.724	1034.73
585.617	934.551
588.51	813.438
591.403	627.615
594.295	421.997
597.188	256.527
600.081	154.942
602.973	94.7471
605.866	122.261
608.759	94.2598
611.651	16.4497
614.544	19.8306
617.437	24.3618
620.33	86.8032
623.222	34.6025
626.115	10.0645
629.008	37.3623
631.9	76.3052
634.793	88.5747
637.686	38.2964
640.578	63.3374
643.471	20.1631
646.364	89.6523
649.256	0.160156
652.149	5.58887
655.042	31.2385
657.935	40.6758
660.827	15.8081
663.72	9.59142
666.613	17.4114
669.505	62.3582
672.398	15.4009
675.291	54.4587
678.183	40.3323
681.076	16.8262
683.969	37.7444
686.862	14.0842
689.754	51.5251
692.647	0.808594
695.54	90.8501
698.432	87.7756
701.325	65.2126
704.218	76.9036
707.111	107.828
710.003	106.51
712.896	110.022
715.789	97.8921
718.681	87.8777
721.574	79.8594
724.467	138.736
727.359	97.6309
730.252	74.2148
733.145	70.9544
736.038	82.7297
738.93	120.925
741.823	48.9805
744.716	13.8691
747.608	40.4016
750.501	63.136
753.394	70.1758
756.286	53.1457
759.179	69.2764
762.072	67.9631
764.965	72.0125
767.857	22.5752
770.75	99.1404
773.643	90.8401
776.535	50.0029
779.428	80.5859
782.321	49.6687
785.213	17.8723
788.106	50.2634
790.999	82.7197
793.891	59.9907
796.784	86.6831
799.677	51.9153
802.57	33.3955
805.462	91.8665
808.355	73.01
811.248	20.5601
814.14	67.0393
817.033	75.2432
819.926	74.4389
822.818	17.6405
825.711	68.4459
828.604	69.8766
831.497	70.3048
834.389	37.217
837.282	51.0001
840.175	16.2061
843.067	51.3731
845.96	70.2045
848.853	40.8839
851.746	43.9632
854.638	65.1429
857.531	18.6345
860.424	21.0004
863.316	23.9936
866.209	19.2397
869.102	46.644
871.995	24.3859
874.887	26.7849
877.78	36.3875
880.673	64.4492
883.565	64.6067
886.458	87.2327
889.351	32.9055
892.243	33.9316
895.136	16.0398
898.029	4.34814
900.922	0.872314
903.814	16.6437
906.707	25.7766
909.6	72.5584
912.492	174.902
915.385	18.3267
918.278	108.1
921.17	68.3735
924.063	39.5164
926.956	44.3003
929.848	49.9219
932.741	35.3469
935.634	63.1016
938.527	6.60425
941.419	16.4883
944.312	15.1379
947.205	25.7002
950.097	61.1045
952.99	78.9495
955.883	60.6624
958.775	14.8794
961.668	35.7859
964.561	35.3748
967.454	38.28
970.346	14.3904
973.239	56.9199
976.132	43.136
979.024	19.8901
981.917	26.5996
984.81	43.6343
987.702	18.9924
990.595	57.3918
993.488	35.2283
996.381	58.4089
999.273	3.07129
1002.17	28.1135
1005.06	47.2957
1007.95	28.5632
1010.84	26.3457
1013.74	23.865
1016.63	24.9753
1019.52	64.2322
1022.41	35.6709
1025.31	28.3579
1028.2	58.7358
1031.09	52.073
1033.99	88.3618
1036.88	15.8042
1039.77	18.8013
1042.66	65.2844
1045.56	60.8757
1048.45	45.572
1051.34	36.3552
1054.23	59.5532
1057.13	55.3799
1060.02	2.80859
1062.91	72.2202
1065.81	63.9258
1068.7	4.62817
1071.59	53.4775
1074.48	32.1509
1077.38	31.9565
1080.27	48.3452
1083.16	71.5829
1086.05	78.8577
1088.95	76.1366
1091.84	38.8902
1094.73	45.832
1097.62	64.3027
1100.52	59.6573
1103.41	29.5403
1106.3	20.3205
1109.2	21.9702
1112.09	55.6919
1114.98	24.7483
1117.87	59.9245
1120.77	57.6646
1123.66	28.909
1126.55	87.8575
1129.44	60.9506
1132.34	23.072
1135.23	40.4299
1138.12	52.3879
1141.02	26.4014
1143.91	21.7336
1146.8	1.74219
1149.69	23.9946
1152.59	33.7007
1155.48	37.0364
1158.37	49.8948
1161.27	68.7944
1164.16	62.2344
1167.05	-1.35956
1169.94	46.2959
1172.84	48.2212
1175.73	52.7889
1178.62	27.4858
1181.51	52.6944
1184.41	32.9751
1187.3	75.6294
1190.19	9.2854
1193.08	60.5374
1195.98	8.80371
1198.87	39.4946
1201.76	51.3108
1204.65	50.9124
1207.55	14.4419
1210.44	52.2332
1213.33	39.8086
1216.23	54.3765
1219.12	21.5642
1222.01	31.3355
1224.9	27.3054
1227.8	34.6638
1230.69	31.2566
1233.58	98.2886
1236.47	31.6379
1239.37	24.3079
1242.26	13.2407
1245.15	53.219
1248.05	6.52368
1250.94	40.5491
1253.83	33.1736
1256.72	2.38843
1259.62	0.005859
