Measurement: Raman, 532 nm, unoriented, Raman Data Processed
Mineral: Polkanovite
Rruff sample: R070076
Ideal chemistry: Rh_12_As_7_
Locality: Miass River, Urals, Russia
Source: Michael Scott
Description: Dark bluish-gray semimetallic inclusion in Os,Ir,Ru matrix. The sample is a polished fragment embedded in epoxy
Measured chemistry: dark phase: (Rh_8.66_Ni_2.10_Pd_0.85_Ru_0.23_Pt_0.08_Cu_0.02_)_Σ=12_As_7.00_ ; trace amounts of Os and Sb ; grey inclusion in the dark phase: (Pt_1.98_Ir_0.01_Rh_0.01_)_Σ=2_(Fe_0.74_Ni_0.05_Cu_0.21_)_Σ=1_Cu_1.00_ (tulameenite)
Raman shift (cm-1)	intensity
135.717	0
139.092	48.4574
142.467	8.68982
145.842	53.7129
149.216	19.738
152.591	33.9123
155.966	55.4777
159.341	7.38347
162.716	41.8883
166.09	4.22733
169.465	27.0174
172.84	16.3098
176.215	19.3519
179.59	10.2269
182.965	19.5934
186.339	55.9138
189.714	38.051
193.089	6.94614
196.464	13.1822
199.839	25.3137
203.214	35.3135
206.588	31.6638
209.963	21.1442
213.338	12.3075
216.713	1.79291
220.088	19.6029
223.462	7.0622
226.837	2.42084
230.212	15.3492
233.587	0.654953
236.962	1.03008
240.337	0.376221
243.711	8.62485
247.086	7.38767
250.461	11.3486
253.836	7.53516
257.211	9.69069
260.585	7.42468
263.96	22.071
267.335	30.7957
270.71	1.71799
274.085	5.88945
277.459	14.5467
280.834	9.2653
284.209	25.1909
287.584	16.5964
290.959	18.3482
294.334	14.4277
297.708	12.8791
301.083	24.536
304.458	14.6669
307.833	29.7844
311.208	21.0926
314.582	26.7409
317.957	26.1421
321.332	33.7473
324.707	31.1016
328.082	45.8411
331.457	21.7253
334.831	37.366
338.206	32.9787
341.581	19.4866
344.956	13.9226
348.331	12.9638
351.705	37.219
355.08	4.21008
358.455	18.0615
361.83	34.1162
365.205	13.5067
368.58	8.179
371.954	21.1587
375.329	15.3566
378.704	28.7053
382.079	19.0529
385.454	29.2085
388.829	24.4761
392.203	18.0724
395.578	35.3915
398.953	13.8487
402.328	7.52328
405.703	10.2
409.077	3.52029
412.452	5.44286
415.827	9.50493
419.202	18.4095
422.577	18.5034
425.952	30.2146
429.326	7.61774
432.701	10.9164
436.076	0.611084
439.451	18.3646
442.826	5.98018
446.2	8.57028
449.575	10.8729
452.95	45.4975
456.325	14.2354
459.7	27.361
463.075	1.78056
466.449	11.332
469.824	20.6504
473.199	1.48136
476.574	0.961647
479.949	16.2856
483.323	14.1857
486.698	13.525
490.073	11.9372
493.448	38.1574
496.823	5.3774
500.197	1.73473
503.572	1.66361
506.947	13.8001
510.322	18.8473
513.697	11.5476
517.072	25.8648
520.446	7.93269
523.821	21.4227
527.196	28.5626
530.571	8.06427
533.946	15.3279
537.321	19.7029
540.695	39.6524
544.07	34.9737
547.445	9.31751
550.82	23.6961
554.195	11.2376
557.569	13.4187
560.944	2.63576
564.319	11.8041
567.694	14.7776
571.069	36.3723
574.443	38.1564
577.818	40.0293
581.193	3.58505
584.568	26.1504
587.943	14.6326
591.318	18.3394
594.692	2.01149
598.067	12.9045
601.442	20.0276
604.817	15.0169
608.192	9.22446
611.567	20.083
614.941	28.0551
618.316	18.3953
621.691	18.2203
625.066	28.549
628.441	6.11626
631.815	29.5465
635.19	20.5074
638.565	5.08736
641.94	26.2849
645.315	24.3169
648.689	26.8257
652.064	20.9944
655.439	30.9137
658.814	16.5687
662.189	19.9194
665.564	22.3318
668.938	13.6201
672.313	14.113
675.688	1.00687
679.063	22.7807
682.438	21.2163
685.812	19.6711
689.187	18.5721
692.562	23.7916
695.937	35.0413
699.312	12.8776
702.687	9.0011
706.061	12.953
709.436	14.73
712.811	38.6143
716.186	12.9539
719.561	25.8036
722.936	25.8152
726.31	38.3156
729.685	14.2019
733.06	26.0474
736.435	30.9033
739.81	20.2045
743.184	23.2896
746.559	17.3939
749.934	6.8828
753.309	28.6758
756.684	2.84981
760.058	23.4179
763.433	38.9511
766.808	8.47147
770.183	0.071648
773.558	10.1067
776.933	9.23405
780.307	2.07519
783.682	6.26534
787.057	32.4084
790.432	13.4704
793.807	19.5666
797.182	17.9589
800.556	17.7732
803.931	32.6418
807.306	8.55672
810.681	6.74098
814.056	0.089836
817.43	4.31762
820.805	4.13413
824.18	11.1014
827.555	3.60963
830.93	11.899
834.304	25.7083
837.679	2.02018
841.054	13.3019
844.429	8.13602
847.804	11.916
851.179	17.5471
854.553	17.8304
857.928	0.725693
861.303	18.3469
864.678	19.9106
868.053	8.2349
871.428	23.1454
874.802	16.2157
878.177	20.3235
881.552	7.48251
884.927	12.3773
888.302	0.420158
891.677	12.5876
895.051	6.15714
898.426	27.9932
901.801	27.669
905.176	13.0462
908.551	17.843
911.925	20.1842
915.3	3.91251
918.675	22.8331
922.05	9.64891
925.425	6.47134
928.799	18.5373
932.174	17.5957
935.549	5.05325
938.924	18.1226
942.299	10.4732
945.673	5.82925
949.048	9.00292
952.423	0.166595
955.798	1.40802
959.173	8.72583
962.548	10.5898
965.922	15.7711
969.297	18.3443
972.672	31.292
976.047	19.2535
979.422	14.9498
982.797	15.3727
986.171	18.4327
989.546	5.74287
992.921	12.5996
996.296	25.6948
999.671	0.134415
1003.04	15.6149
1006.42	10.6474
1009.79	13.4048
1013.17	17.2094
1016.54	2.28143
1019.92	22.3517
1023.29	31.2507
1026.67	17.7589
1030.04	29.8482
1033.42	11.9036
1036.79	21.1132
1040.17	17.3906
1043.54	16.6009
1046.92	42.0552
1050.29	24.6762
1053.67	10.9727
1057.04	19.329
1060.42	11.7993
1063.79	13.066
1067.17	19.5977
1070.54	24.2235
1073.92	33.2295
1077.29	41.5569
1080.67	17.6816
1084.04	10.3984
1087.42	16.5776
1090.79	19.8406
1094.17	39.6082
1097.54	11.1796
1100.91	23.7298
1104.29	4.98276
1107.66	32.6695
1111.04	31.1016
1114.41	12.921
1117.79	27.1065
1121.16	32.4851
1124.54	13.8969
1127.91	10.3103
1131.29	2.80878
1134.66	9.74471
1138.04	13.8684
1141.41	11.2548
1144.79	31.1595
1148.16	39.3115
1151.54	17.882
1154.91	25.5817
1158.29	25.3037
1161.66	7.37296
1165.04	32.7559
1168.41	13.404
1171.79	1.10596
1175.16	5.10785
1178.54	12.2591
1181.91	11.1856
1185.29	4.96837
1188.66	6.07024
1192.04	25.1513
1195.41	23.1375
1198.79	10.1497
1202.16	39.0257
1205.54	20.6941
1208.91	25.2074
1212.28	22.8375
1215.66	5.46574
1219.03	34.2668
1222.41	0.086914
1225.78	21.6851
1229.16	32.947
1232.53	21.1428
1235.91	26.1846
1239.28	17.4124
1242.66	19.4832
1246.03	15.7546
1249.41	4.05551
1252.78	5.29707
1256.16	13.8096
1259.53	27.1805
1262.91	24.799
1266.28	12.9515
1269.66	32.4212
1273.03	4.3514
1276.41	7.64706
1279.78	20.7935
1283.15	17.4848
1286.53	0.396782
1289.9	21.1655
1293.28	15.3561
1296.65	7.9622
1300.03	0.630684
1303.4	10.454
