Measurement: Raman, 785 nm, unoriented, Raman Data Processed
Mineral: Polkanovite
Rruff sample: R070076
Ideal chemistry: Rh_12_As_7_
Locality: Miass River, Urals, Russia
Source: Michael Scott
Description: Dark bluish-gray semimetallic inclusion in Os,Ir,Ru matrix. The sample is a polished fragment embedded in epoxy
Measured chemistry: dark phase: (Rh_8.66_Ni_2.10_Pd_0.85_Ru_0.23_Pt_0.08_Cu_0.02_)_Σ=12_As_7.00_ ; trace amounts of Os and Sb ; grey inclusion in the dark phase: (Pt_1.98_Ir_0.01_Rh_0.01_)_Σ=2_(Fe_0.74_Ni_0.05_Cu_0.21_)_Σ=1_Cu_1.00_ (tulameenite)
Raman shift (cm-1)	intensity
163.254	0
166.147	13.542
169.04	122.258
171.932	63.4418
174.825	202.348
177.718	237.78
180.61	51.8727
183.503	9.95691
186.396	76.1385
189.288	227.054
192.181	74.9604
195.074	158.869
197.967	93.4119
200.859	79.439
203.752	53.1157
206.645	55.6663
209.537	7.08563
212.43	22.4891
215.323	25.3642
218.215	9.599
221.108	23.6647
224.001	16.3222
226.894	4.97757
229.786	14.0982
232.679	23.426
235.572	77.5566
238.464	68.0761
241.357	80.1932
244.25	82.6415
247.143	73.8645
250.035	91.3416
252.928	131.789
255.821	134.581
258.713	111.636
261.606	92.1165
264.499	78.403
267.391	106.963
270.284	103.179
273.177	84.2863
276.07	88.6776
278.962	85.765
281.855	64.7335
284.748	85.7034
287.64	58.8372
290.533	51.6083
293.426	43.182
296.318	35.5515
299.211	42.5135
302.104	52.289
304.997	39.7569
307.889	57.7111
310.782	38.6156
313.675	37.6991
316.567	32.3204
319.46	52.8954
322.353	29.8905
325.245	29.5924
328.138	30.4239
331.031	23.5969
333.923	34.9404
336.816	0.660095
339.709	19.8043
342.602	30.6933
345.494	17.861
348.387	19.2986
351.28	15.0284
354.172	26.9834
357.065	5.06342
359.958	12.0506
362.851	3.60092
365.743	0.660645
368.636	17.5908
371.529	17.6188
374.421	26.1477
377.314	18.1358
380.207	11.9268
383.099	17.1435
385.992	15.3537
388.885	3.57954
391.777	17.7636
394.67	11.3792
397.563	13.0325
400.456	4.4942
403.348	13.2551
406.241	11.0558
409.134	7.79709
412.026	5.84633
414.919	17.4097
417.812	12.7479
420.704	12.2077
423.597	0.983521
426.49	8.49063
429.383	8.30585
432.275	11.4972
435.168	16.6141
438.061	18.3398
440.953	21.3001
443.846	6.30516
446.739	4.41383
449.632	15.7112
452.524	29.3578
455.417	13.2894
458.31	15.5272
461.202	12.5294
464.095	20.8737
466.988	25.7492
469.88	2.35446
472.773	25.9723
475.666	0.318298
478.558	7.85907
481.451	9.25284
484.344	23.4766
487.237	36.7893
490.129	11.6986
493.022	12.9378
495.915	28.4564
498.807	18.2927
501.7	8.91492
504.593	1.78449
507.486	11.2946
510.378	15.4062
513.271	1.94829
516.164	19.5406
519.056	21.656
521.949	11.0745
524.842	43.1536
527.734	15.04
530.627	16.4904
533.52	25.0618
536.413	13.6846
539.305	28.7275
542.198	19.2399
545.091	13.2788
547.983	12.4167
550.876	12.1587
553.769	4.1125
556.661	38.9882
559.554	20.3134
562.447	20.9021
565.34	20.0306
568.232	12.143
571.125	32.3479
574.018	0.725983
576.91	23.2981
579.803	14.4434
582.696	29.7689
585.588	9.55353
588.481	14.8548
591.374	4.74995
594.266	20.1669
597.159	14.5659
600.052	13.8788
602.945	19.0412
605.837	7.65996
608.73	19.5181
611.623	2.12651
614.515	13.7584
617.408	10.0752
620.301	3.32718
623.193	17.1666
626.086	17.7708
628.979	19.6908
631.872	6.3893
634.764	8.62122
637.657	8.07931
640.55	24.6868
643.442	10.1979
646.335	11.0006
649.228	16.5201
652.12	2.64087
655.013	6.12651
657.906	14.1264
660.799	17.6611
663.691	17.2934
666.584	21.1215
669.477	16.7654
672.369	12.7263
675.262	21.8913
678.155	9.89477
681.048	18.9467
683.94	4.36917
686.833	13.5384
689.726	4.12962
692.618	7.09445
695.511	7.85603
698.404	3.80721
701.296	23.8254
704.189	4.72502
707.082	10.7809
709.975	17.083
712.867	6.76793
715.76	4.00824
718.653	23.012
721.545	16.4414
724.438	9.92326
727.331	2.401
730.223	29.6508
733.116	17.4895
736.009	21.5036
738.902	28.7164
741.794	31.6449
744.687	30.7473
747.58	9.20842
750.472	10.884
753.365	11.4146
756.258	12.157
759.15	25.7535
762.043	9.68889
764.936	13.6594
767.828	0.98175
770.721	9.38211
773.614	16.4728
776.507	8.5883
779.399	2.79207
782.292	11.6823
785.185	7.40414
788.077	9.55278
790.97	13.5518
793.863	8.64876
796.755	24.8277
799.648	3.38802
802.541	32.4164
805.434	21.8771
808.326	9.97884
811.219	17.1852
814.112	7.3338
817.004	7.15393
819.897	14.8494
822.79	16.2376
825.683	2.37343
828.575	0.86618
831.468	20.5765
834.361	16.6099
837.253	9.67609
840.146	27.5539
843.039	17.1466
845.931	23.0195
848.824	22.8419
851.717	12.6914
854.61	3.21632
857.502	21.7873
860.395	9.10767
863.288	15.2656
866.18	12.2337
869.073	28.6911
871.966	6.30244
874.858	19.5074
877.751	18.3647
880.644	11.4585
883.537	6.187
886.429	6.78593
889.322	45.8183
892.215	22.9274
895.107	20.8855
898	19.3622
900.893	10.541
903.785	14.3182
906.678	28.9187
909.571	16.6151
912.463	7.8072
915.356	27.6091
918.249	4.22307
921.142	1.43611
924.034	17.7955
926.927	5.57256
929.82	9.09476
932.712	25.3093
935.605	22.6117
938.498	8.76234
941.39	15.542
944.283	17.5259
947.176	20.0458
950.069	21.1186
952.961	5.77284
955.854	16.147
958.747	29.7114
961.639	15.2842
964.532	17.2898
967.425	2.54729
970.317	33.7795
973.21	20.6313
976.103	7.14004
978.996	12.2281
981.888	18.7129
984.781	27.2611
987.674	8.72717
990.566	23.2651
993.459	25.8657
996.352	29.0367
999.245	12.4819
1002.14	14.8752
1005.03	13.7639
1007.92	37.2577
1010.82	9.47783
1013.71	23.7457
1016.6	20.4203
1019.49	4.37486
1022.39	20.4047
1025.28	23.1166
1028.17	30.6569
1031.06	10.5527
1033.96	13.0356
1036.85	20.51
1039.74	31.3396
1042.63	27.9265
1045.53	21.3823
1048.42	16.0525
1051.31	19.9532
1054.21	34.5404
1057.1	6.7224
1059.99	16.7192
1062.88	10.3459
1065.78	25.0819
1068.67	16.7075
1071.56	10.8855
1074.45	26.7301
1077.35	25.8807
1080.24	18.0689
1083.13	30.7153
1086.03	10.6268
1088.92	25.5922
1091.81	20.5238
1094.7	16.6023
1097.6	20.0916
1100.49	22.1312
1103.38	3.62788
1106.27	13.8418
1109.17	22.8111
1112.06	24.5264
1114.95	16.5468
1117.85	5.70523
1120.74	20.8701
1123.63	36.2341
1126.52	21.134
1129.42	8.95348
1132.31	19.9064
1135.2	18.2794
1138.09	24.4537
1140.99	15.5784
1143.88	19.6219
1146.77	23.259
1149.66	37.9103
1152.56	7.25549
1155.45	26.2018
1158.34	30.3907
1161.24	3.74295
1164.13	29.6121
1167.02	33.2539
1169.91	7.79805
1172.81	21.4782
1175.7	12.4686
1178.59	15.5901
1181.48	19.4577
1184.38	29.826
1187.27	33.8467
1190.16	18.3339
1193.06	21.6157
1195.95	1.91249
1198.84	23.4899
1201.73	26.752
1204.63	10.3947
1207.52	31.0431
1210.41	9.07359
1213.3	25.979
1216.2	11.5474
1219.09	6.72415
1221.98	20.5879
1224.88	21.2467
1227.77	10.9449
1230.66	15.595
1233.55	9.57092
1236.45	1.72281
