Measurement: Raman, 785 nm, unoriented, Raman Data Processed
Mineral: Polydymite
Rruff sample: R070377
Ideal chemistry: Ni^2+^Ni^3+^_2_S^2-^_4_
Locality: Shamva mine, Mashonaland Central, Zimbabwe
Source: James Shigley
Description: Grey metallic massive associated with clinochlore
Raman shift (cm-1)	intensity
173.57	0
176.463	4.35663
179.356	35.6473
182.248	10.8645
185.141	34.9659
188.034	80.0468
190.926	70.1519
193.819	30.986
196.712	96.8439
199.604	26.0856
202.497	23.9995
205.39	66.4655
208.282	32.5241
211.175	18.8164
214.068	33.939
216.961	53.5141
219.853	44.072
222.746	75.5041
225.639	51.7225
228.531	33.1031
231.424	4.24387
234.317	11.9006
237.209	5.35226
240.102	16.3252
242.995	32.8743
245.888	11.2227
248.78	16.3971
251.673	17.5483
254.566	51.8521
257.458	38.0004
260.351	33.25
263.244	47.784
266.137	41.7897
269.029	47.4732
271.922	54.1555
274.815	57.0892
277.707	49.9324
280.6	59.1253
283.493	59.1186
286.385	68.5239
289.278	64.0886
292.171	46.3053
295.063	43.1096
297.956	33.0042
300.849	26.2085
303.742	34.2203
306.634	47.3916
309.527	38.3254
312.42	37.1503
315.312	29.7658
318.205	20.7782
321.098	12.4187
323.99	22.4023
326.883	28.6162
329.776	31.1313
332.669	41.6264
335.561	70.4036
338.454	82.276
341.347	70.7201
344.239	81.765
347.132	54.3235
350.025	32.9439
352.918	32.3861
355.81	14.7052
358.703	6.08365
361.596	11.5703
364.488	0.544662
367.381	2.97482
370.274	1.1297
373.166	17.8352
376.059	29.442
378.952	41.0659
381.844	44.7693
384.737	40.7172
387.63	40.7054
390.523	21.9724
393.415	11.5637
396.308	5.25452
399.201	3.38506
402.093	10.1982
404.986	1.47856
407.879	2.4218
410.772	6.22167
413.664	12.9098
416.557	10.1468
419.45	4.13706
422.342	14.4987
425.235	9.48589
428.128	12.4552
431.02	4.20759
433.913	1.49976
436.806	4.26002
439.699	1.91445
442.591	3.65894
445.484	11.3559
448.377	3.42943
451.269	6.27643
454.162	13.3062
457.055	13.9935
459.947	10.2728
462.84	5.77299
465.733	4.88462
468.625	11.3502
471.518	11.9657
474.411	8.67329
477.304	0.156548
480.196	8.28232
483.089	10.613
485.982	8.50237
488.874	22.7111
491.767	12.8809
494.66	7.65482
497.553	7.27859
500.445	9.92027
503.338	6.34773
506.231	10.5764
509.123	5.51827
512.016	0.702827
514.909	7.68436
517.802	8.29817
520.694	5.27158
523.587	0.878876
526.48	7.34664
529.372	13.3467
532.265	8.9571
535.158	11.9511
538.05	13.6593
540.943	10.9581
543.836	5.75657
546.729	11.8674
549.621	15.0906
552.514	6.57757
555.407	7.01753
558.299	12.4136
561.192	10.4253
564.085	4.70796
566.977	6.36
569.87	7.98775
572.763	1.53964
575.655	2.66119
578.548	9.83482
581.441	8.47284
584.333	10.0765
587.226	1.56209
590.119	17.2133
593.012	11.7041
595.904	2.66213
598.797	2.44079
601.69	9.40852
604.582	6.03059
607.475	3.54807
610.368	4.90138
613.26	3.43495
616.153	9.13261
619.046	1.37221
621.939	6.94836
624.831	7.5433
627.724	2.95857
630.617	3.10442
633.509	13.8526
636.402	6.95912
639.295	9.51887
642.188	5.64358
645.08	5.87455
647.973	10.405
650.866	13.7281
653.758	5.04929
656.651	7.02238
659.544	0.519661
662.436	3.23912
665.329	0.957214
668.222	2.75606
671.115	2.95644
674.007	0.247086
676.9	6.00529
679.793	4.03729
682.685	0.295517
685.578	9.19689
688.471	7.45483
691.363	3.14945
694.256	6.60051
697.149	17.1485
700.042	6.52971
702.934	8.67094
705.827	8.60194
708.72	4.71075
711.612	4.8311
714.505	8.95058
717.398	7.3089
720.29	8.01841
723.183	7.18708
726.076	2.04143
728.968	2.68549
731.861	11.7015
734.754	9.05992
737.647	10.0754
740.539	3.94182
743.432	6.87365
746.325	4.18372
749.217	4.51165
752.11	12.4119
755.003	11.5201
757.895	6.00406
760.788	5.74527
763.681	10.0605
766.574	3.62553
769.466	5.75211
772.359	8.21654
775.252	10.4993
778.144	10.1242
781.037	3.51633
783.93	8.30701
786.822	1.37673
789.715	12.0825
792.608	9.58337
795.501	1.89755
798.393	11.2275
801.286	1.90263
804.179	4.21497
807.071	8.12262
809.964	4.37338
812.857	2.52623
815.75	3.0067
818.642	4.0269
821.535	2.59939
824.428	4.96795
827.32	6.2514
830.213	8.2866
833.106	4.73942
835.998	9.16904
838.891	14.9341
841.784	9.46861
844.677	14.4773
847.569	5.43131
850.462	7.70837
853.355	7.08255
856.247	4.09919
859.14	8.25874
862.033	10.4494
864.925	9.21837
867.818	4.68652
870.711	7.45618
873.604	8.3947
876.496	10.2932
879.389	1.52032
882.282	0.745499
885.174	2.31007
888.067	0.602051
890.96	6.43623
893.852	11.3402
896.745	11.2053
899.638	6.89443
902.53	12.8896
905.423	6.14957
908.316	6.23659
911.209	4.88325
914.101	4.25143
916.994	7.1346
919.887	0.396111
922.779	6.17439
925.672	4.75639
928.565	9.95351
931.457	15.8163
934.35	10.4169
937.243	12.5874
940.136	9.75874
943.028	7.40352
945.921	4.16172
948.814	1.23087
951.706	5.44083
954.599	6.53193
957.492	4.92644
960.385	8.5135
963.277	8.4002
966.17	15.2751
969.063	9.45206
971.955	8.97821
974.848	10.3662
977.741	9.92749
980.633	17.6588
983.526	9.84062
986.419	8.90427
989.312	5.28681
992.204	4.65398
995.097	5.3512
997.99	10.8058
1000.88	3.85455
1003.77	11.8177
1006.67	6.90808
1009.56	13.5441
1012.45	6.58397
1015.35	6.95322
1018.24	4.52159
1021.13	7.15253
1024.02	5.81675
1026.92	5.2079
1029.81	3.94282
1032.7	7.68736
1035.6	1.72643
1038.49	6.034
1041.38	12.0885
1044.27	6.82011
1047.17	7.18433
1050.06	13.6373
1052.95	8.46807
1055.84	2.45174
1058.74	12.2769
1061.63	9.95134
1064.52	5.70966
1067.41	6.44877
1070.31	1.48022
1073.2	1.26679
1076.09	6.43641
1078.98	7.02573
1081.88	13.3983
1084.77	5.36657
1087.66	4.67607
1090.56	6.47167
1093.45	9.79481
1096.34	5.19605
1099.23	9.15924
1102.13	4.54447
1105.02	11.1583
1107.91	1.0774
1110.81	1.82861
1113.7	1.97735
1116.59	9.93689
1119.48	10.5365
1122.38	11.1311
1125.27	15.3133
1128.16	4.45302
1131.05	5.46861
1133.95	6.22702
1136.84	2.61951
1139.73	12.7176
1142.62	5.82043
1145.52	6.84953
1148.41	17.9368
1151.3	11.4713
1154.19	15.4602
1157.09	12.0142
1159.98	11.5847
1162.87	6.02274
1165.77	6.24253
1168.66	14.6184
1171.55	10.8211
1174.44	6.95451
1177.34	3.13283
1180.23	6.43476
1183.12	5.15192
1186.02	3.38113
1188.91	8.31026
1191.8	12.0483
1194.69	6.6803
1197.59	7.83389
1200.48	13.741
1203.37	9.84694
1206.26	7.86972
1209.16	6.8746
1212.05	12.8815
1214.94	1.59489
1217.84	9.92929
1220.73	3.03767
1223.62	5.63299
1226.51	3.61398
1229.41	0.110847
1232.3	8.2536
1235.19	3.72345
