Measurement: Raman, 780 nm, unoriented, Raman Data Processed
Mineral: Potassic-arfvedsonite
Rruff sample: R050516
Ideal chemistry: KNa_2_Fe^2+^_4_Fe^3+^Si_8_O_22_(OH)_2_
Locality: Red Wine complex, Labrador, Newfoundland, Canada
Source: Frank Hawthorne
Description: Black fragments, structure is published in Can Min 14 (1976) 346-356
Measured chemistry: (K_0.72_Na_0.25_[box]_0.03_)Na_2.00_(Fe^2+^_3.75_Ca_0.15_Mg_0.10_)_Î£=4_(Fe^3+^_0.55_Al_0.30_Ti_0.10_Mn_0.05_)Si_8_O_22_(OH)_2_
Raman shift (cm-1)	intensity
110.215	0
113.59	1.71551
116.965	4.65095
120.34	5.94765
123.715	11.6202
127.089	10.8417
130.464	13.7462
133.839	12.3704
137.214	12.1248
140.589	6.50443
143.963	3.30342
147.338	5.63705
150.713	8.69148
154.088	8.35757
157.463	8.07619
160.838	6.51019
164.212	6.05351
167.587	3.02017
170.962	0.831528
174.337	1.50679
177.712	0.294281
181.086	2.31448
184.461	0.674927
187.836	0.425125
191.211	1.13092
194.586	0.124695
197.96	1.38463
201.335	0.410934
204.71	5.88457
208.085	6.09303
211.46	9.37965
214.835	9.25848
218.209	8.98622
221.584	10.1051
224.959	11.3071
228.334	10.817
231.709	6.56576
235.083	6.80231
238.458	6.47447
241.833	5.08452
245.208	8.26489
248.583	4.24599
251.958	3.85381
255.332	0.215973
258.707	0.474045
262.082	0.46373
265.457	0.824371
268.832	0.607529
272.207	2.56528
275.581	1.75778
278.956	2.88486
282.331	2.27658
285.706	1.55774
289.08	3.44022
292.455	4.7397
295.83	3.89038
299.205	5.43147
302.58	3.25195
305.955	4.32838
309.329	1.97793
312.704	3.05665
316.079	1.60982
319.454	1.41445
322.829	2.31184
326.204	1.48012
329.578	1.64485
332.953	2.34874
336.328	1.30339
339.703	1.59628
343.078	4.00861
346.452	4.46101
349.827	3.36157
353.202	5.83844
356.577	3.32771
359.952	5.57484
363.327	6.62737
366.701	6.21275
370.076	7.77155
373.451	8.50793
376.826	7.64123
380.201	6.00594
383.575	3.42635
386.95	2.21893
390.325	2.67361
393.7	2.78735
397.075	2.40096
400.45	0.215279
403.824	1.07298
407.199	3.01518
410.574	1.79369
413.949	4.08596
417.324	2.80347
420.698	4.40905
424.073	3.18908
427.448	3.12656
430.823	2.64963
434.198	2.42964
437.572	1.23488
440.947	0.153366
444.322	0.684631
447.697	0.307114
451.072	0.349083
454.447	1.85623
457.821	0.584007
461.196	0.261848
464.571	1.32222
467.946	0.343689
471.321	0.134933
474.695	1.33647
478.07	2.65052
481.445	4.20314
484.82	3.96782
488.195	5.50644
491.57	6.61233
494.944	5.89927
498.319	7.25041
501.694	7.26353
505.069	8.43223
508.444	8.85205
511.818	8.32879
515.193	10.197
518.568	10.3951
521.943	10.9553
525.318	11.495
528.692	12.7604
532.067	12.3544
535.442	11.6604
538.817	13.4967
542.192	13.3315
545.567	13.9203
548.941	13.7396
552.316	12.8645
555.691	12.1678
559.066	12.28
562.441	12.9302
565.816	10.8615
569.19	10.1948
572.565	9.67638
575.94	8.84544
579.315	6.62717
582.69	5.09213
586.064	5.31897
589.439	5.90262
592.814	3.30228
596.189	1.4229
599.564	1.00723
602.938	2.79507
606.313	0.446327
609.688	1.81195
613.063	0.150307
616.438	0.842278
619.812	0.292526
623.187	1.14325
626.562	1.64088
629.937	1.62929
633.312	0.531967
636.687	1.64397
640.061	3.03237
643.436	1.78405
646.811	5.22466
650.186	7.18187
653.561	9.61549
656.936	12.6218
660.31	14.1902
663.685	17.9065
667.06	18.659
670.435	19.1787
673.81	15.4466
677.184	10.7462
680.559	9.32848
683.934	4.43398
687.309	2.22338
690.684	2.96989
694.058	3.15675
697.433	3.13764
700.808	1.83701
704.183	0.119461
707.558	2.3384
710.933	0.579887
714.307	1.444
717.682	0.508408
721.057	1.88425
724.432	2.40318
727.807	0.506859
731.182	0.747192
734.556	1.11716
737.931	1.73784
741.306	0.1408
744.681	0.701897
748.056	1.51434
751.43	0.320648
754.805	0.674126
758.18	0.395737
761.555	0.303421
764.93	1.10111
768.304	1.11412
771.679	1.35671
775.054	0.787697
778.429	1.27166
781.804	1.90468
785.178	2.79188
788.553	1.9081
791.928	2.82044
795.303	2.40691
798.678	1.75134
802.053	3.21547
805.427	2.94041
808.802	3.44154
812.177	4.12595
815.552	3.52908
818.927	3.76078
822.302	4.15318
825.676	5.57913
829.051	3.32017
832.426	4.79621
835.801	6.23533
839.176	5.48785
842.55	5.57256
845.925	6.7174
849.3	5.00741
852.675	5.768
856.05	6.19384
859.424	7.2923
862.799	6.56513
866.174	5.35783
869.549	5.20428
872.924	5.32605
876.299	5.00559
879.673	5.44531
883.048	4.65941
886.423	4.919
889.798	3.1604
893.173	4.93455
896.548	2.95362
899.922	2.80164
903.297	0.283752
906.672	1.41952
910.047	2.41045
913.422	3.03107
916.796	1.08891
920.171	0.747139
923.546	0.208237
926.921	0.021965
930.296	0.565712
933.67	0.199257
937.045	1.15624
940.42	0.135658
943.795	0.310211
947.17	0.382133
950.544	0.69249
953.919	1.6797
957.294	1.56004
960.669	4.25188
964.044	3.4281
967.419	4.68479
970.793	5.31818
974.168	5.55714
977.543	4.24612
980.918	3.43991
984.293	1.58027
987.668	1.87299
991.042	1.45533
994.417	2.04911
997.792	1.42505
1001.17	0.844189
1004.54	2.23565
1007.92	1.61497
1011.29	1.05235
1014.67	3.72377
1018.04	2.43685
1021.42	4.21284
1024.79	4.21447
1028.16	3.5239
1031.54	4.03316
1034.91	4.56309
1038.29	1.72652
1041.66	4.11793
1045.04	4.5452
1048.41	3.68103
1051.79	4.5709
1055.16	3.5362
1058.54	3.51178
1061.91	6.00734
1065.29	2.69434
1068.66	2.29846
1072.04	3.48156
1075.41	3.34773
1078.79	1.58331
1082.16	2.70008
1085.54	2.40764
1088.91	3.78077
1092.29	3.30612
1095.66	3.36929
1099.04	1.84442
1102.41	0.198963
1105.79	1.2956
1109.16	1.81807
1112.54	2.68644
1115.91	0.63493
1119.29	0.930103
1122.66	0.254959
1126.04	0.954697
1129.41	1.10448
1132.79	1.64674
1136.16	1.03456
1139.53	1.30601
1142.91	1.19121
1146.28	1.05167
1149.66	1.49674
1153.03	0.378288
1156.41	0.990067
1159.78	0.631584
1163.16	0.382874
1166.53	2.10932
1169.91	1.71672
1173.28	0.4958
1176.66	2.41873
1180.03	3.29571
1183.41	3.21245
1186.78	2.30236
1190.16	1.55075
1193.53	3.96487
1196.91	2.56305
1200.28	2.23485
1203.66	3.62785
1207.03	3.51491
1210.4	1.67794
1213.78	2.77236
1217.15	0.326111
1220.53	0.81942
1223.9	1.4269
1227.28	0.445248
1230.65	2.48108
1234.03	3.26522
1237.4	1.71536
1240.78	1.09138
1244.15	2.01506
1247.53	2.81971
1250.9	3.27288
1254.28	0.783543
1257.65	1.83139
1261.03	0.419815
1264.4	2.23834
1267.78	0.847637
1271.15	2.66424
1274.53	2.7178
1277.9	1.80023
1281.28	0.386585
1284.65	1.24834
