Measurement: Raman, 780 nm, unoriented, Raman Data Processed
Mineral: Prosopite
Rruff sample: R100181
Ideal chemistry: CaAl_2_F_4_(OH)_4_
Locality: Carlota mine, Pinto Creek, Gila, Arizona, USA
Source: Joe Ruiz
Description: Colorless granular crystals,  associated with blue azurite, green elongated szenicsite (R100179) and pale green thick tabular powellite (R100180)
Raman shift (cm-1)	intensity
108.444	0
111.819	45.082
115.193	47.6367
118.568	1.05273
121.943	5.66211
125.318	13.7344
128.693	34.1445
132.067	1.5
135.442	27.2559
138.817	78.8926
142.192	69.4375
145.567	66.1816
148.941	52.9395
152.316	101.58
155.691	63.625
159.066	142.221
162.441	109.547
165.816	106.975
169.19	152.557
172.565	153.516
175.94	87.0019
179.315	50.6406
182.69	108.006
186.065	139.619
189.439	122.498
192.814	103.574
196.189	57.3789
199.564	113.393
202.939	87.6074
206.313	91.3926
209.688	48.4121
213.063	61.9805
216.438	91.2949
219.813	76.9941
223.188	49.9375
226.562	83.7188
229.937	81.668
233.312	54.4609
236.687	74.3867
240.061	92.6777
243.436	74.25
246.811	52.0898
250.186	45.3535
253.561	27.2285
256.936	11.5898
260.31	13.0039
263.685	38.4258
267.06	5.0918
270.435	43.0478
273.81	15.6934
277.185	16.6631
280.559	26.0303
283.934	1.17773
287.309	3.61914
290.684	31.2002
294.059	6.50781
297.433	4.35449
300.808	4.13281
304.183	40.167
307.558	22.2246
310.933	49.3281
314.308	20.6455
317.682	24.9004
321.057	50.1094
324.432	53.0557
327.807	76.3975
331.182	52.9082
334.556	34.9824
337.931	63.0156
341.306	53.9375
344.681	72.6172
348.056	73.8486
351.43	21.5371
354.805	29.2373
358.18	24.7842
361.555	29.793
364.93	14.168
368.305	2.35644
371.679	37.4941
375.054	36.3945
378.429	16.7314
381.804	4.9541
385.179	8.99219
388.553	10.4053
391.928	1.05078
395.303	51.584
398.678	58.169
402.053	53.7109
405.427	60.1221
408.802	41.6377
412.177	83.6992
415.552	62.2539
418.927	80.71
422.301	84.7969
425.676	66.0967
429.051	89.9502
432.426	108.983
435.801	91.5049
439.176	82.3447
442.55	76.9473
445.925	58.2373
449.3	79.167
452.675	103.242
456.05	92.001
459.425	131.191
462.799	93.2978
466.174	91.0674
469.549	87.7969
472.924	103.201
476.299	51.5049
479.673	36.6758
483.048	48.1562
486.423	74.6123
489.798	44.6797
493.173	28.7627
496.547	29.6006
499.922	10.876
503.297	15.2773
506.672	9.9707
510.047	8.94922
513.422	6.1709
516.796	14.5654
520.171	1.9668
523.546	8.47266
526.921	21.2041
530.296	2.72363
533.67	13.2812
537.045	14.4268
540.42	20.9785
543.795	31.292
547.17	50.5879
550.544	56.0391
553.919	70.4853
557.294	80.6094
560.669	83.0674
564.044	57.209
567.418	89.1338
570.793	81.2978
574.168	60.2344
577.543	72.4512
580.918	48.875
584.293	24.4219
587.667	13.3721
591.042	28.207
594.417	37.8203
597.792	61.833
601.167	27.7393
604.542	26.0205
607.916	35.1435
611.291	66.6787
614.666	59.2432
618.041	30.2607
621.416	0.225586
624.79	28.748
628.165	48.8584
631.54	4.64062
634.915	36.1445
638.29	43.2266
641.664	25.876
645.039	4.57422
648.414	2.9082
651.789	24.4355
655.164	4.54199
658.538	36.0752
661.913	21.709
665.288	18.5283
668.663	1.66113
672.038	15.4004
675.413	28.7402
678.787	14.9062
682.162	21.0635
685.537	21.8594
688.912	29.2656
692.287	52.5518
695.662	7.42773
699.036	35.3301
702.411	27.4805
705.786	42.6143
709.161	44.669
712.535	27.7227
715.91	30.6992
719.285	28.7695
722.66	31.8711
726.035	35.5498
729.41	17.9238
732.784	33.9688
736.159	11.3779
739.534	15.3604
742.909	18.1328
746.284	21.3867
749.659	24.459
753.033	20.2402
756.408	31.7188
759.783	18.0459
763.158	18.1934
766.533	20.3535
769.907	12.1768
773.282	27.3027
776.657	22.2168
780.032	20.666
783.407	23.6807
786.782	18.335
790.156	14.7783
793.531	46.3164
796.906	13.4971
800.281	45.1914
803.655	16.2842
807.03	49.1777
810.405	17.2627
813.78	21.4326
817.155	51.4307
820.53	60.9043
823.904	45.8652
827.279	69.8018
830.654	37.7168
834.029	2.25586
837.404	14.0791
840.779	4.38379
844.153	12.0947
847.528	41.2666
850.903	24.7783
854.278	14.9424
857.653	1.36133
861.027	49.1758
864.402	19.5332
867.777	23.0869
871.152	7.88379
874.527	47.6367
877.901	25.5605
881.276	1.25684
884.651	40.4297
888.026	17.0283
891.401	27.7695
894.775	16.293
898.15	14.5771
901.525	8.29199
904.9	10.7412
908.275	5.0957
911.65	21.1064
915.024	0.174805
918.399	16.9648
921.774	12.3867
925.149	38.2295
928.524	34.2353
931.899	36.9043
935.273	0.348633
938.648	22.8945
942.023	41.6553
945.398	33.583
948.773	46.9893
952.147	18.877
955.522	21.3242
958.897	37.7217
962.272	17.5664
965.647	26.0918
969.021	14.1416
972.396	0.69043
975.771	5.40039
979.146	6.68848
982.521	8.49609
985.895	14.1299
989.27	30.2285
992.645	4.67578
996.02	16.5957
999.395	53.4043
1002.77	39.2256
1006.14	48.6826
1009.52	58.2246
1012.89	44.0225
1016.27	36.085
1019.64	38.21
1023.02	43.498
1026.39	82.1016
1029.77	63.9111
1033.14	50.4824
1036.52	58.5098
1039.89	54.5859
1043.27	37.9365
1046.64	29.7568
1050.02	34.5713
1053.39	54.5918
1056.77	18.3857
1060.14	47.8789
1063.52	36.7002
1066.89	54.7051
1070.27	44.4824
1073.64	41.2217
1077.02	40.416
1080.39	33.4434
1083.77	22.1738
1087.14	31.3799
1090.52	33.9678
1093.89	21.0264
1097.26	15.5615
1100.64	1.75098
1104.01	14.4893
1107.39	17.6836
1110.76	29.415
1114.14	0.598633
1117.51	0.357422
1120.89	17.1836
1124.26	26.9482
1127.64	10.1299
1131.01	7.75879
1134.39	23.4297
1137.76	21.251
1141.14	48.2773
1144.51	24.8633
1147.89	53.5371
1151.26	53.1318
1154.64	62.0742
1158.01	71.1777
1161.39	70.6631
1164.76	103.739
1168.13	99.8584
1171.51	117.503
1174.88	133.976
1178.26	149.293
1181.63	163.939
1185.01	132.351
1188.38	137.286
1191.76	132.878
1195.13	101.7
1198.51	58.8472
1201.88	35.8975
1205.26	48.9985
1208.63	33.4028
1212.01	35.6699
1215.38	4.11084
1218.76	11.8247
1222.13	22.8501
1225.51	30.1177
1228.88	26.8262
1232.26	18.9629
1235.63	50.7192
1239.01	7.29688
1242.38	28.499
1245.76	34.9004
1249.13	7.89258
1252.51	13.75
1255.88	26.3423
1259.26	7.91992
1262.63	7.22412
1266.01	8.72998
1269.38	22.8296
1272.76	30.2144
1276.13	15.4038
1279.5	7.0874
1282.88	0.943359
