Measurement: Raman, 780 nm, unoriented, Raman Data Processed
Mineral: Pseudomalachite
Rruff sample: R050597
Ideal chemistry: Cu^2+^_5_(P^5+^O_4_)_2_(OH)_4_
Locality: Cerro Negro mine, Carrizalillo, Chile
Source: William W. Pinch
Description: Dark-green tabular crystals associated with chalcosiderite, R060007
Raman shift (cm-1)	intensity
128.224	0
131.599	12.2061
134.974	15.9329
138.349	17.4871
141.723	9.13586
145.098	0.524109
148.473	4.39163
151.848	0.24025
155.223	6.48292
158.597	5.89582
161.972	8.7495
165.347	17.4958
168.722	16.4515
172.097	18.8702
175.472	10.0386
178.846	10.7082
182.221	7.09975
185.596	5.96278
188.971	8.00581
192.346	7.17757
195.72	5.69463
199.095	12.5437
202.47	1.87331
205.845	7.02211
209.22	6.79602
212.595	2.70382
215.969	10.0931
219.344	3.58895
222.719	1.55455
226.094	5.66297
229.469	1.90308
232.843	2.24041
236.218	7.76694
239.593	11.2076
242.968	6.77676
246.343	10.5086
249.718	13.4629
253.092	7.47578
256.467	9.79367
259.842	4.76424
263.217	5.35964
266.592	8.14913
269.966	7.8694
273.341	8.31727
276.716	3.42168
280.091	5.77152
283.466	0.748085
286.84	18.2293
290.215	12.1477
293.59	1.57053
296.965	10.5403
300.34	2.58257
303.714	4.88845
307.089	7.63007
310.464	5.7732
313.839	4.54307
317.214	3.54526
320.589	3.09588
323.963	2.07832
327.338	3.25306
330.713	2.34418
334.088	2.75807
337.463	2.69527
340.837	17.9986
344.212	1.45797
347.587	4.21296
350.962	2.19814
354.337	11.5053
357.712	6.92937
361.086	3.16147
364.461	4.98467
367.836	7.60463
371.211	4.69828
374.586	2.09101
377.96	4.30436
381.335	1.88662
384.71	3.07312
388.085	4.44043
391.46	5.51293
394.834	1.05162
398.209	4.09004
401.584	0.699348
404.959	0.129627
408.334	6.65209
411.709	1.72355
415.083	8.93484
418.458	4.21031
421.833	6.41517
425.208	14.6961
428.583	15.0566
431.957	14.041
435.332	16.6568
438.707	14.4592
442.082	21.6108
445.457	25.1966
448.832	20.7541
452.206	15.9242
455.581	18.618
458.956	13.76
462.331	21.8951
465.706	16.4107
469.08	21.4873
472.455	19.9944
475.83	17.6748
479.205	10.346
482.58	18.4843
485.954	9.69783
489.329	9.94648
492.704	7.63673
496.079	4.41909
499.454	3.91042
502.829	0.438034
506.203	1.28383
509.578	0.893707
512.953	3.62463
516.328	0.854668
519.703	6.22966
523.077	0.642658
526.452	8.93549
529.827	6.6672
533.202	1.52059
536.577	3.6324
539.952	4.83156
543.326	3.42557
546.701	2.40726
550.076	6.58721
553.451	3.19169
556.826	4.56661
560.2	11.1027
563.575	3.02087
566.95	7.97741
570.325	1.96369
573.7	9.942
577.074	6.91416
580.449	2.71489
583.824	3.96362
587.199	7.34549
590.574	2.60534
593.948	7.29824
597.323	10.1398
600.698	7.9969
604.073	12.4094
607.448	10.6767
610.823	10.4386
614.197	11.1903
617.572	7.40155
620.947	2.27543
624.322	8.52854
627.697	4.64362
631.072	7.78221
634.446	1.00855
637.821	5.49836
641.196	1.67703
644.571	3.98237
647.946	4.04561
651.32	4.80263
654.695	2.93953
658.07	3.55865
661.445	3.09298
664.82	1.12643
668.194	4.63641
671.569	0.911934
674.944	6.08633
678.319	5.14075
681.694	2.00605
685.068	3.77906
688.443	4.48751
691.818	6.45846
695.193	9.81574
698.568	5.86691
701.943	4.63738
705.317	9.65443
708.692	4.52467
712.067	2.02977
715.442	9.08845
718.817	4.15494
722.192	4.31974
725.566	4.87194
728.941	8.36023
732.316	3.5977
735.691	4.86145
739.066	3.77915
742.44	3.44799
745.815	6.04216
749.19	8.65244
752.565	8.94275
755.94	4.67389
759.314	6.25678
762.689	0.393993
766.064	6.70285
769.439	1.84732
772.814	12.0226
776.188	4.87236
779.563	4.69545
782.938	0.309795
786.313	9.01709
789.688	5.25193
793.063	2.64974
796.437	11.2282
799.812	6.16885
803.187	1.91085
806.562	11.9342
809.937	6.25106
813.312	10.4614
816.686	3.554
820.061	3.75687
823.436	15.687
826.811	10.0607
830.186	3.55525
833.56	5.63107
836.935	14.5543
840.31	2.57128
843.685	12.4702
847.06	14.9836
850.434	0.238914
853.809	10.4785
857.184	12.6002
860.559	12.7363
863.934	7.5033
867.308	7.1124
870.683	12.6411
874.058	10.8725
877.433	13.7398
880.808	8.28624
884.183	8.90368
887.557	7.59167
890.932	6.90832
894.307	3.22074
897.682	2.91547
901.057	6.26836
904.432	0.218296
907.806	0.730824
911.181	1.02426
914.556	0.831985
917.931	1.72144
921.306	3.25566
924.68	1.33657
928.055	7.7256
931.43	9.80322
934.805	5.96427
938.18	5.55138
941.554	12.3498
944.929	13.2487
948.304	11.4122
951.679	11.3499
955.054	17.297
958.428	11.5361
961.803	8.06216
965.178	16.473
968.553	10.9998
971.928	17.0662
975.303	12.112
978.677	10.3347
982.052	10.0068
985.427	6.36029
988.802	10.955
992.177	6.23782
995.552	8.44072
998.926	9.29396
1002.3	6.29143
1005.68	1.27333
1009.05	-0.0223321
1012.43	4.69555
1015.8	7.82043
1019.17	5.23805
1022.55	0.940052
1025.92	8.06491
1029.3	0.061096
1032.67	7.65203
1036.05	8.04091
1039.42	3.06004
1042.8	5.00434
1046.17	9.39688
1049.55	6.41282
1052.92	10.8894
1056.3	9.00839
1059.67	9.74318
1063.05	9.70109
1066.42	22.9529
1069.8	10.2561
1073.17	9.17268
1076.55	7.74721
1079.92	7.94778
1083.3	7.71899
1086.67	5.84633
1090.05	11.6763
1093.42	13.4229
1096.8	5.81109
1100.17	8.82645
1103.55	2.55891
1106.92	3.50373
1110.3	8.57355
1113.67	12.1016
1117.05	5.0383
1120.42	7.273
1123.79	7.82574
1127.17	12.6435
1130.54	9.30191
1133.92	0.694126
1137.29	13.1593
1140.67	6.17851
1144.04	3.84113
1147.42	1.60814
1150.79	0.012531
1154.17	6.0847
1157.54	0.343323
1160.92	10.0446
1164.29	3.3489
1167.67	6.78088
1171.04	8.53806
1174.42	4.73105
1177.79	7.25311
1181.17	7.05464
1184.54	2.86057
1187.92	6.61369
1191.29	7.24622
1194.67	7.04396
1198.04	4.85821
1201.41	5.9059
1204.79	9.84457
1208.16	11.0404
1211.54	1.83082
1214.91	6.18954
1218.29	7.75215
1221.66	1.53747
1225.04	5.13092
1228.41	12.7993
1231.79	6.94367
1235.16	6.10917
1238.54	6.37499
1241.91	0.291233
1245.29	6.35258
1248.66	11.4953
1252.04	9.47222
1255.41	11.4217
1258.79	3.47253
1262.16	8.05669
1265.54	6.54212
1268.91	9.83654
1272.29	5.26678
1275.66	7.37295
1279.04	5.82328
1282.41	10.1785
1285.79	5.61092
