Measurement: Raman, 780 nm, unoriented, Raman Data Processed
Mineral: Pseudomalachite
Rruff sample: R050264
Ideal chemistry: Cu^2+^_5_(P^5+^O_4_)_2_(OH)_4_
Locality: Cerro Morita, 27 km southwest of Agua Prieta, Sonora, Mexico
Source: Marcus Origlieri
Description: Blue powdery crust
Measured chemistry: (Cu_4.91_Al_0.04_[box]_0.03_Ca_0.02_)_Σ=5_((P_1.98_S_0.02_)_Σ=1_O_4_)_2_(OH)_4_ ; = light phase
Raman shift (cm-1)	intensity
112.413	0
115.787	0.1371
119.162	1.07247
122.537	0.103561
125.912	1.46079
129.287	2.58189
132.662	2.47265
136.036	1.81683
139.411	0.632744
142.786	0.771645
146.161	0.136497
149.536	0.256577
152.911	0.149559
156.285	0.425201
159.66	0.439171
163.035	0.008705
166.41	0.595383
169.785	0.642059
173.159	0.597076
176.534	0.988251
179.909	0.701401
183.284	0.935822
186.659	0.959038
190.033	1.66013
193.408	0.671013
196.783	1.06804
200.158	0.502922
203.533	1.56318
206.907	2.16313
210.282	1.20228
213.657	0.849953
217.032	0.004829
220.407	3.45912
223.782	1.16058
227.156	0.730446
230.531	2.16061
233.906	1.28431
237.281	2.06632
240.656	1.05261
244.03	1.94707
247.405	2.05552
250.78	0.514915
254.155	0.46933
257.53	0.395676
260.904	0.792427
264.279	0.413788
267.654	0.596909
271.029	0.092026
274.404	0.610825
277.779	0.581734
281.153	0.206383
284.528	0.694443
287.903	0.895927
291.278	0.83654
294.653	0.460144
298.027	0.805016
301.402	0.68129
304.777	0.397949
308.152	0.444359
311.527	0.398834
314.902	1.64451
318.276	0.265556
321.651	0.642258
325.026	0.120277
328.401	1.13811
331.776	0.719345
335.151	1.07475
338.525	0.321632
341.9	0.56411
345.275	0.104477
348.65	0.588913
352.024	0.318504
355.399	1.72656
358.774	1.33113
362.149	0.840256
365.524	1.43314
368.899	1.52452
372.273	0.424019
375.648	0.250122
379.023	0.317993
382.398	0.624924
385.773	0.040703
389.147	0.864418
392.522	0.07975
395.897	0.25293
399.272	0.489182
402.647	0.289345
406.022	0.062637
409.396	0.454727
412.771	0.204803
416.146	0.992577
419.521	1.02756
422.896	0.693047
426.27	1.2793
429.645	0.817894
433.02	1.21507
436.395	0.38031
439.77	1.596
443.144	1.59719
446.519	1.37656
449.894	1.45819
453.269	1.73113
456.644	1.09565
460.019	0.747261
463.393	1.66476
466.768	1.04496
470.143	1.55626
473.518	2.81969
476.893	1.95236
480.267	2.0773
483.642	2.14026
487.017	1.02254
490.392	0.609215
493.767	0.88063
497.142	0.036224
500.516	0.309639
503.891	0.931274
507.266	0.123573
510.641	0.915291
514.016	1.36571
517.39	0.671791
520.765	0.820389
524.14	1.29945
527.515	0.206299
530.89	0.286957
534.264	0.884926
537.639	0.755699
541.014	0.736794
544.389	0.201012
547.764	0.500298
551.139	1.30798
554.513	0.215172
557.888	1.10006
561.263	0.563988
564.638	0.055397
568.013	0.600533
571.388	0.753113
574.762	0.348656
578.137	1.12853
581.512	1.39815
584.887	0.652275
588.261	0.830338
591.636	0.498505
595.011	1.70739
598.386	0.409218
601.761	1.29037
605.136	1.55205
608.51	0.97403
611.885	1.21189
615.26	1.61448
618.635	1.09768
622.01	1.00487
625.385	0.178032
628.759	0.566483
632.134	1.43507
635.509	1.07926
638.884	0.582886
642.259	0.164345
645.633	0.656975
649.008	1.4459
652.383	0.850304
655.758	0.606796
659.133	0.605843
662.507	0.853027
665.882	0.987442
669.257	0.023636
672.632	0.04689
676.007	0.62368
679.381	0.516479
682.756	0.32859
686.131	0.782295
689.506	0.000656
692.881	0.16378
696.256	0.13253
699.63	0.72023
703.005	0.924416
706.38	0.85733
709.755	0.269417
713.13	0.059479
716.505	0.285179
719.879	0.543449
723.254	0.129288
726.629	0.740807
730.004	1.24293
733.379	0.050087
736.753	0.120834
740.128	1.30081
743.503	1.50584
746.878	0.763855
750.253	1.2312
753.627	0.230148
757.002	0.73848
760.377	0.263
763.752	1.05322
767.127	1.09064
770.501	0.791771
773.876	0.101448
777.251	0.614693
780.626	0.905411
784.001	0.065407
787.376	0.194328
790.75	1.64562
794.125	0.731102
797.5	1.09813
800.875	1.23911
804.25	1.18132
807.625	1.14563
810.999	0.840019
814.374	0.651382
817.749	0.901756
821.124	1.22343
824.499	1.65709
827.873	0.510559
831.248	0.809967
834.623	1.17078
837.998	1.04182
841.373	0.655991
844.747	1.15363
848.122	0.25589
851.497	0.724762
854.872	0.588417
858.247	1.39446
861.621	1.17329
864.996	0.44886
868.371	0.575676
871.746	0.856636
875.121	1.29405
878.495	0.198082
881.87	1.16254
885.245	0.878632
888.62	1.13639
891.995	0.68306
895.37	0.487892
898.744	1.00765
902.119	0.642525
905.494	0.620384
908.869	0.114265
912.244	0.522232
915.619	0.073204
918.993	0.878338
922.368	0.472919
925.743	0.079464
929.118	0.793045
932.493	1.10635
935.867	0.515137
939.242	1.47656
942.617	1.34474
945.992	1.78524
949.367	0.844429
952.741	1.01189
956.116	0.960548
959.491	1.08952
962.866	0.652927
966.241	0.740551
969.615	0.798836
972.99	0.68235
976.365	1.38168
979.74	1.22591
983.115	1.04317
986.49	0.781231
989.864	0.342503
993.239	1.13944
996.614	0.372372
999.989	1.23224
1003.36	1.00974
1006.74	0.212868
1010.11	0.048466
1013.49	0.960407
1016.86	1.13578
1020.24	0.547806
1023.61	0.258564
1026.99	0.93671
1030.36	0.495331
1033.74	0.220524
1037.11	0.705273
1040.49	0.758995
1043.86	1.16018
1047.24	0.017067
1050.61	0.550709
1053.99	1.22945
1057.36	1.52254
1060.74	1.07526
1064.11	1.24692
1067.48	1.08932
1070.86	0.637779
1074.23	0.590908
1077.61	0.224174
1080.98	1.70616
1084.36	0.812828
1087.73	1.44545
1091.11	1.05211
1094.48	0.838989
1097.86	0.112293
1101.23	0.119881
1104.61	0.320259
1107.98	0.651112
1111.36	0.77808
1114.73	0.261013
1118.11	0.282692
1121.48	1.01039
1124.86	0.579281
1128.23	1.07058
1131.61	0.824593
1134.98	0.664612
1138.36	0.982052
1141.73	0.549351
1145.11	0.846527
1148.48	0.349117
1151.86	0.438007
1155.23	0.283276
1158.61	1.17894
1161.98	0.735397
1165.36	0.547379
1168.73	1.02169
1172.1	0.955925
1175.48	1.26499
1178.85	1.04327
1182.23	0.856445
1185.6	0.969822
1188.98	0.614704
1192.35	1.27782
1195.73	1.08177
1199.1	1.66946
1202.48	1.2972
1205.85	0.880287
1209.23	0.116905
1212.6	0.129646
1215.98	0.748398
1219.35	0.433754
1222.73	0.111992
1226.1	0.228905
1229.48	0.606323
1232.85	0.248009
1236.23	0.141853
1239.6	0.525009
1242.97	0.504089
1246.35	0.037907
1249.72	1.209
1253.1	0.636463
1256.47	0.611504
1259.85	0.873203
1263.22	0.160805
1266.6	1.82138
1269.97	0.204525
1273.35	1.06538
1276.72	0.973969
1280.1	0.293999
1283.47	0.118156
