Measurement: Raman, 780 nm, unoriented, Raman Data Processed
Mineral: Pyrite
Rruff sample: R050190
Ideal chemistry: Fe^2+^(S_2_)^2-^
Locality: Huanzala mine, Huallanca District, Dos de Mayo Province, Huanuco Department, Peru
Source: Dave Bunk Minerals
Description: Brass yellow modified cubes with typical pyrite striations
Measured chemistry: Fe_1.00_S_2.00_
Raman shift (cm-1)	intensity
146.481	0
149.373	0.183599
152.266	0.79
155.159	0.44317
158.052	0.05749
160.944	0.623217
163.837	0.495666
166.73	0.26103
169.622	0.724397
172.515	0.636458
175.408	0.742603
178.3	0.832936
181.193	0.706354
184.086	0.404998
186.978	0.390947
189.871	0.201331
192.764	0.320312
195.657	0.071499
198.549	0.205325
201.442	0.1749
204.335	0.219604
207.227	0.236891
210.12	0.006407
213.013	0.257595
215.905	0.137582
218.798	0.712976
221.691	0.282994
224.584	0.21536
227.476	0.25542
230.369	0.419337
233.262	0.407458
236.154	0.405603
239.047	0.68492
241.94	0.950251
244.833	0.470937
247.725	0.240825
250.618	0.439378
253.511	0.237883
256.403	0.598106
259.296	0.361736
262.189	0.448523
265.081	0.077399
267.974	0.03982
270.867	0.379445
273.76	0.13094
276.652	0.109054
279.545	0.196699
282.438	0.333872
285.33	0.226703
288.223	0.111217
291.116	0.05872
294.008	0.196819
296.901	0.383163
299.794	0.029588
302.687	0.274255
305.579	0.012874
308.472	0.28031
311.365	0.329967
314.257	0.688464
317.15	1.0108
320.043	1.75783
322.935	10.6713
325.828	27.5513
328.721	20.8207
331.613	25.7719
334.506	31.2077
337.399	34.3404
340.292	31.7994
343.184	22.0523
346.077	3.28396
348.97	1.19526
351.862	0.42089
354.755	0.302508
357.648	0.913097
360.541	3.29131
363.433	3.35004
366.326	3.70605
369.219	4.75556
372.111	5.68045
375.004	6.22817
377.897	5.536
380.789	1.9069
383.682	0.372117
386.575	0.257291
389.467	0.086245
392.36	0.041438
395.253	0.327418
398.146	0.179334
401.038	0.454975
403.931	0.202509
406.824	0.022796
409.716	0.100943
412.609	0.040855
415.502	0.246488
418.394	0.224595
421.287	0.063456
424.18	0.404613
427.072	0.257689
429.965	0.027699
432.858	0.357278
435.751	0.469656
438.643	0.486831
441.536	0.550477
444.429	0.419382
447.321	0.516112
450.214	0.581017
453.107	0.565929
456	0.769646
458.892	0.858408
461.785	0.75585
464.678	0.625451
467.57	0.765542
470.463	0.487959
473.356	0.846554
476.248	0.335765
479.141	0.502134
482.034	0.721114
484.926	0.868134
487.819	0.04448
490.712	0.444258
493.605	0.43083
496.497	0.324293
499.39	0.008324
502.283	0.196974
505.175	0.202688
508.068	0.082207
510.961	0.192381
513.854	0.169339
516.746	0.41298
519.639	0.277704
522.532	0.082076
525.424	0.078057
528.317	0.594215
531.21	0.557518
534.102	0.676616
536.995	0.886771
539.888	1.38857
542.78	1.50388
545.673	1.42554
548.566	1.36068
551.459	0.961423
554.351	0.835662
557.244	0.513287
560.137	0.56449
563.029	0.520566
565.922	0.342164
568.815	0.286583
571.707	0.302911
574.6	0.638626
577.493	0.36348
580.386	0.260718
583.278	0.232013
586.171	0.711247
589.064	0.323232
591.956	0.073851
594.849	0.27696
597.742	0.459862
600.635	0.332719
603.527	0.476863
606.42	0.269083
609.313	0.440884
612.205	0.359174
615.098	0.07401
617.991	0.243814
620.883	0.216611
623.776	0.138866
626.669	0.198602
629.562	0.515571
632.454	0.24752
635.347	0.425477
638.24	0.384832
641.132	0.305649
644.025	0.350775
646.918	0.519734
649.81	0.628487
652.703	0.044027
655.596	0.335477
658.489	0.321946
661.381	0.305639
664.274	0.076588
667.167	0.427996
670.059	0.427347
672.952	0.441843
675.845	0.335293
678.737	0.128844
681.63	0.009497
684.523	0.144206
687.415	0.095483
690.308	0.133271
693.201	0.271208
696.094	0.078398
698.986	0.280307
701.879	0.310091
704.772	0.020136
707.664	0.552258
710.557	0.086459
713.45	0.226897
716.342	0.196936
719.235	0.519472
722.128	0.180715
725.021	0.276443
727.913	0.190174
730.806	0.388764
733.699	0.114117
736.591	0.061686
739.484	0.260293
742.377	0.238004
745.269	0.185588
748.162	0.305037
751.055	0.272128
753.947	0.29274
756.84	0.237361
759.733	0.502523
762.626	0.778186
765.518	0.723208
768.411	0.647379
771.304	1.07151
774.196	0.996649
777.089	0.624634
779.982	1.06349
782.875	0.94948
785.767	0.962456
788.66	1.74262
791.553	1.65712
794.445	1.54199
797.338	1.61446
800.231	1.85771
803.123	1.24273
806.016	1.47874
808.909	1.42434
811.802	0.897073
814.694	0.591726
817.587	1.1235
820.48	0.507565
823.372	0.674594
826.265	0.959417
829.158	0.663783
832.05	0.978099
834.943	0.934077
837.836	1.17802
840.729	1.37272
843.621	1.3607
846.514	1.48594
849.407	1.71343
852.299	2.08693
855.192	1.98333
858.085	1.9349
860.977	1.86039
863.87	1.82594
866.763	1.9451
869.655	1.38775
872.548	1.04687
875.441	0.437209
878.334	0.77853
881.226	0.602189
884.119	0.520777
887.012	0.034967
889.904	0.169349
892.797	0.32114
895.69	0.018302
898.582	0.437922
901.475	0.272653
904.368	0.259508
907.261	0.253805
910.153	0.085675
913.046	0.090381
915.939	0.183333
918.831	0.091783
921.724	0.018478
924.617	0.190925
927.51	0.024946
930.402	0.123167
933.295	0.083731
936.188	0.17433
939.08	0.110878
941.973	0.330859
944.866	0.103071
947.758	0.394375
950.651	0.235445
953.544	0.293413
956.437	0.294134
959.329	0.422019
962.222	0.410714
965.115	0.440514
968.007	0.155472
970.9	0.022489
973.793	0.400837
976.685	0.292579
979.578	0.07291
982.471	0.227254
985.364	0.367977
988.256	0.205699
991.149	0.21236
994.042	0.084422
996.934	0.235698
999.827	0.059394
1002.72	0.248719
1005.61	0.156513
1008.5	0.243352
1011.4	0.129832
1014.29	0.283385
1017.18	0.23217
1020.08	0.065116
1022.97	0.512289
1025.86	0.171602
1028.75	0.296097
1031.65	0.246186
1034.54	0.388459
1037.43	0.425436
1040.33	0.43993
1043.22	0.415315
1046.11	0.263059
1049	0.20031
1051.9	0.490464
1054.79	0.119951
1057.68	0.222051
1060.57	0.476415
1063.47	0.147189
1066.36	0.362824
1069.25	0.034936
1072.14	0.408716
1075.04	0.184132
1077.93	0.006237
1080.82	0.033479
1083.71	0.208247
1086.61	0.182498
1089.5	0.176553
1092.39	0.008911
1095.29	0.115403
1098.18	0.145541
1101.07	0.655824
1103.96	0.143912
1106.86	0.097395
1109.75	0.120219
1112.64	0.000401
1115.54	0.248653
1118.43	0.273864
1121.32	0.214338
1124.21	0.103229
1127.11	0.124487
1130	0.176578
1132.89	0.122242
1135.78	0.32291
1138.68	0.351766
1141.57	0.110738
1144.46	0.168979
1147.36	0.231745
1150.25	0.289329
1153.14	0.33391
1156.03	0.432202
1158.92	0.293445
1161.82	0.411335
1164.71	0.512972
1167.6	0.052625
1170.5	0.520006
1173.39	0.31324
1176.28	0.468024
1179.17	0.074209
1182.07	0.31788
1184.96	0.31624
1187.85	0.278257
1190.74	0.317379
1193.64	0.576482
1196.53	0.105179
1199.42	0.381573
1202.32	0.507378
1205.21	0.119156
1208.1	0.056869
1210.99	0.237398
1213.89	0.254132
1216.78	0.590074
1219.67	0.22103
1222.57	0.401254
1225.46	0.462795
1228.35	0.516509
1231.24	0.065241
1234.13	0.039329
1237.03	0.339242
1239.92	0.484504
1242.81	0.409184
1245.71	0.558656
1248.6	0.366642
1251.49	0.812715
1254.38	0.553116
1257.28	0.208893
1260.17	0.452718
1263.06	0.396582
1265.95	0.445914
1268.85	0.271483
1271.74	0.030983
1274.63	0.260682
1277.53	0.46914
1280.42	0.007641
