Measurement: Raman, 532 nm, unoriented, Raman Data Processed
Mineral: Pyrochlore
Rruff sample: R080050
Ideal chemistry: Ca_2_Nb_2_O_7_
Locality: Hackman Valley, Yukspor Mountain, Khibiny, Kola, Russia
Source: Michael Scott
Description: Dark brown irregular grains on microcline
Raman shift (cm-1)	intensity
149.81	0
152.703	5.29932
155.596	3.68738
158.488	7.99426
161.381	4.12561
164.274	9.91602
167.167	11.5875
170.059	14.0758
172.952	12.3457
175.845	14.5854
178.737	17.9592
181.63	21.8663
184.523	23.3258
187.415	23.0068
190.308	19.9484
193.201	18.027
196.094	16.8137
198.986	6.49707
201.879	9.71118
204.772	9.71838
207.664	2.38013
210.557	5.40064
213.45	1.24219
216.342	6.47754
219.235	5.86707
222.128	2.36902
225.02	5.27759
227.913	4.677
230.806	6.27087
233.699	4.99658
236.591	7.62146
239.484	14.5688
242.377	14.4073
245.269	11.6869
248.162	9.2688
251.055	14.9746
253.947	14.5384
256.84	15.5945
259.733	17.3348
262.626	17.1576
265.518	14.0753
268.411	22.4116
271.304	25.1155
274.196	16.3724
277.089	18.3406
279.982	15.3408
282.875	13.3027
285.767	16.7651
288.66	19.3215
291.553	20.0466
294.445	21.4895
297.338	15.1726
300.231	8.72168
303.123	5.86328
306.016	7.16992
308.909	9.00977
311.801	7.89844
314.694	10.6274
317.587	9.74731
320.48	12.1741
323.372	9.47876
326.265	10.0586
329.158	10.9929
332.05	9.31787
334.943	9.86768
337.836	11.8806
340.728	1.33081
343.621	12.1472
346.514	22.999
349.407	16.144
352.299	12.2615
355.192	14.054
358.085	12.7107
360.977	13.4153
363.87	9.84326
366.763	4.60962
369.656	1.22778
372.548	3.71924
375.441	0.246094
378.334	3.87524
381.226	1.45459
384.119	7.5564
387.012	4.80664
389.904	10.4815
392.797	12.9053
395.69	10.4006
398.582	5.46045
401.475	10.9233
404.368	11.1882
407.26	8.96558
410.153	9.57227
413.046	11.3774
415.939	15.3901
418.831	18.2534
421.724	19.666
424.617	26.0483
427.509	22.2324
430.402	20.6079
433.295	20.8696
436.188	20.1792
439.08	23.3835
441.973	24.615
444.866	30.8794
447.758	27.5107
450.651	18.3906
453.544	19.1355
456.436	23.4521
459.329	20.8965
462.222	20.6335
465.115	7.27637
468.007	12.105
470.9	12.3975
473.793	10.1335
476.685	9.95142
479.578	9.77148
482.471	9.43066
485.363	8.13648
488.256	8.16968
491.149	8.50293
494.041	1.50269
496.934	3.63306
499.827	2.83569
502.72	2.48511
505.612	3.09058
508.505	3.29346
511.398	2.58887
514.29	1.6272
517.183	0.029297
520.076	0.568848
522.968	2.61426
525.861	0.121338
528.754	2.49414
531.647	1.52026
534.539	12.8013
537.432	2.32764
540.325	5.62476
543.217	6.03076
546.11	6.4353
549.003	10.0481
551.895	12.0623
554.788	8.26416
557.681	1.9082
560.574	4.94116
563.466	7.43164
566.359	0.023193
569.252	0.639648
572.144	5.98267
575.037	1.90454
577.93	13.3147
580.822	14.7417
583.715	19.3328
586.608	20.8772
589.501	16.7578
592.393	10.0586
595.286	8.00854
598.179	11.0796
601.071	8.96021
603.964	12.9138
606.857	11.7522
609.75	0.717285
612.642	8.70337
615.535	2.67456
618.428	7.41919
621.32	12.9197
624.213	13.584
627.106	7.48047
629.998	5.92847
632.891	6.99902
635.784	7.32983
638.677	2.17773
641.569	1.52856
644.462	3.90527
647.355	3.94019
650.247	7.51001
653.14	7.67505
656.033	6.81689
658.925	12.478
661.818	7.51709
664.711	8.57349
667.604	7.80005
670.496	1.10278
673.389	7.45947
676.282	3.03101
679.174	10.0068
682.067	4.64356
684.96	6.89014
687.852	4.68555
690.745	2.98389
693.638	11.1836
696.53	8.45239
699.423	5.39819
702.316	5.72046
705.209	7.36206
708.101	10.0369
710.994	11.1108
713.887	5.5813
716.779	7.42773
719.672	6.79102
722.565	6.12231
725.457	7.04761
728.35	2.18091
731.243	2.78833
734.136	2.06909
737.028	7.85864
739.921	7.47827
742.814	1.30933
745.706	0.252686
748.599	4.36108
751.492	5.96338
754.385	10.3933
757.277	9.28979
760.17	7.99268
763.063	0.053711
765.955	6.15967
768.848	10.522
771.741	8.15918
774.633	9.83154
777.526	3.8606
780.419	1.42188
783.312	3.61792
786.204	10.2168
789.097	17.7798
791.99	18.4292
794.882	13.7534
797.775	2.88428
800.668	6.79053
803.56	2.02954
806.453	6.729
809.346	3.95386
812.239	9.27637
815.131	8.73682
818.024	8.80981
820.917	1.84888
823.809	7.54248
826.702	11.7253
829.595	10.3252
832.487	8.5044
835.38	13.363
838.273	15.2532
841.165	12.8289
844.058	9.8252
846.951	6.78906
849.844	6.24048
852.736	5.32715
855.629	10.3135
858.522	7.76123
861.414	13.5391
864.307	9.75684
867.2	6.46973
870.092	4.87305
872.985	7.45898
875.878	2.30493
878.771	5.43457
881.663	9.1875
884.556	19.0786
887.449	8.67334
890.341	5.73096
893.234	3.8396
896.127	0.765137
899.019	5.34619
901.912	9.51953
904.805	7.92407
907.698	17.9619
910.59	9.13989
913.483	10.6843
916.376	5.46753
919.268	9.43994
922.161	4.82861
925.054	4.36084
927.947	1.91138
930.839	1.53003
933.732	8.0957
936.625	10.7983
939.517	3.53784
942.41	4.20532
945.303	0.428955
948.195	3.29394
951.088	0.350098
953.981	0.643066
956.874	11.5422
959.766	10.9299
962.659	3.99414
965.552	0.784912
968.444	4.05689
971.337	4.82568
974.23	0.285645
977.122	0.568848
980.015	5.17969
982.908	9.82227
985.8	11.8332
988.693	12.3354
991.586	5.20752
994.479	3.5144
997.371	4.58447
1000.26	12.4563
1003.16	15.0093
1006.05	11.4458
1008.94	8.37769
1011.84	4.26318
1014.73	11.429
1017.62	8.57031
1020.51	3.82178
1023.41	9.34668
1026.3	13.0535
1029.19	1.38061
1032.08	12.126
1034.98	3.19092
1037.87	14.3582
1040.76	10.6196
1043.65	14.3813
1046.55	16.0789
1049.44	13.5652
1052.33	9.53589
1055.22	8.18652
1058.12	4.31494
1061.01	6.63574
1063.9	3.90454
1066.8	11.3616
1069.69	6.23804
1072.58	7.01074
1075.47	11.2297
1078.37	12.8489
1081.26	10.8601
1084.15	10.4143
1087.05	9.81372
1089.94	8.98096
1092.83	5.49561
1095.72	6.49365
1098.62	0.642822
1101.51	3.13672
1104.4	1.04517
1107.29	9.35571
1110.19	8.99585
1113.08	8.20776
1115.97	7.9436
1118.87	0.896484
1121.76	1.79614
1124.65	0.947754
1127.54	1.30054
1130.43	2.0271
1133.33	1.70606
1136.22	4.44385
1139.11	5.74243
1142.01	7.39624
1144.9	9.52319
1147.79	2.10205
1150.68	5.89453
1153.58	6.58374
1156.47	9.95264
1159.36	14.1985
1162.26	11.6111
1165.15	17.0603
1168.04	17.0166
1170.93	11.1987
1173.83	16.4551
1176.72	13.5278
1179.61	19.0298
1182.5	10.2102
1185.4	11.6099
1188.29	7.96436
1191.18	14.3547
1194.08	7.64917
1196.97	15.8748
1199.86	14.6863
1202.75	21.9265
1205.65	13.8896
1208.54	13.0115
1211.43	7.62988
1214.32	4.26856
1217.22	3.36841
1220.11	9.3374
1223	11.0928
1225.89	10.0207
1228.79	9.72095
1231.68	6.48926
1234.57	11.2437
1237.46	6.02197
1240.36	3.05737
1243.25	0.848389
1246.14	3.32153
1249.04	8.80249
1251.93	6.72192
1254.82	8.45801
1257.71	3.57324
1260.61	5.75561
1263.5	8.4856
1266.39	10.6133
1269.29	0.327148
1272.18	7.11646
1275.07	5.95703
1277.96	10.2947
1280.86	13.2781
1283.75	12.0779
1286.64	16.0693
1289.53	10.8457
1292.43	10.7952
1295.32	8.71973
1298.21	4.44678
1301.11	0.299561
1304	1.35449
