Measurement: Raman, 780 nm, unoriented, Raman Data Processed
Mineral: Pyrochlore
Rruff sample: R060151
Ideal chemistry: Ca_2_Nb_2_O_7_
Locality: Oka, Quebec, Canada
Source: Marcus Origlieri
Description: Reddish-brown octahedral crystals associated with calcite
Measured chemistry: (Ca_1.41_Na_0.59_)_Σ=2_(Nb_1.49_Ti_0.26_Ce_0.15_Fe^3+^_0.05_La_0.02_Nd_0.02_Mn_0.02_)_Σ=2_(O_5.40_(OH)_1.10_F_0.50_)_Σ=7_
Raman shift (cm-1)	intensity
150.844	0
153.736	0.359619
156.629	3.10376
159.522	8.43576
162.414	11.6354
165.307	15.927
168.2	20.7232
171.093	25.0092
173.985	25.9259
176.878	28.6536
179.771	29.7684
182.663	31.8851
185.556	36.6242
188.449	36.9637
191.341	36.7271
194.234	30.7913
197.127	25.9162
200.019	22.0341
202.912	15.2246
205.805	8.80335
208.697	5.2572
211.59	3.03125
214.483	1.53674
217.376	2.67285
220.268	4.22394
223.161	3.29327
226.054	0.726959
228.946	0.690643
231.839	9.22406
234.732	15.2512
237.625	23.2601
240.517	30.6138
243.41	41.8056
246.303	53.5667
249.195	63.6283
252.088	74.4638
254.981	80.7045
257.873	93.2975
260.766	105.13
263.659	115.689
266.551	125.703
269.444	138.631
272.337	146.152
275.23	152.227
278.122	159.075
281.015	166.81
283.908	164.805
286.8	163.635
289.693	160.881
292.586	155.159
295.478	143.38
298.371	131.476
301.264	119.974
304.157	105.718
307.049	92.5835
309.942	77.0898
312.835	66.0368
315.727	54.0242
318.62	42.5302
321.513	31.8264
324.406	22.6508
327.298	19.9586
330.191	8.49191
333.084	4.73428
335.976	1.3526
338.869	0.287048
341.762	0.904846
344.654	5.22232
347.547	11.5858
350.44	20.0918
353.332	31.9689
356.225	44.6923
359.118	55.4135
362.01	64.8949
364.903	69.9445
367.796	74.2755
370.689	78.0131
373.581	78.5029
376.474	74.1675
379.367	68.2233
382.259	62.5856
385.152	53.5598
388.045	42.857
390.938	30.6976
393.83	20.6645
396.723	14.0241
399.616	6.28229
402.508	2.40018
405.401	2.16379
408.294	3.26105
411.186	4.60376
414.079	3.42603
416.972	2.4826
419.865	0.417297
422.757	5.08713
425.65	10.0677
428.543	16.3761
431.435	23.7909
434.328	28.978
437.221	36.4345
440.113	42.4791
443.006	55.4797
445.899	55.1751
448.791	60.7841
451.684	60.6354
454.577	58.8932
457.47	59.0408
460.362	55.9977
463.255	51.3505
466.148	42.5609
469.04	36.4145
471.933	25.7941
474.826	21.4076
477.719	15.3021
480.611	12.4115
483.504	11.1403
486.397	12.3426
489.289	17.4598
492.182	18.963
495.075	25.127
497.967	31.3765
500.86	35.6424
503.753	41.8509
506.645	45.623
509.538	49.5071
512.431	52.4521
515.323	51.1574
518.216	45.5704
521.109	41.3408
524.002	32.9295
526.894	28.2917
529.787	25.0107
532.68	25.8004
535.572	24.1191
538.465	26.6618
541.358	27.0434
544.25	22.8687
547.143	21.2569
550.036	15.9488
552.929	10.1476
555.821	7.46265
558.714	2.47156
561.607	2.35382
564.499	2.16092
567.392	4.20142
570.285	0.7211
573.178	5.01291
576.07	9.07309
578.963	16.4818
581.856	20.0512
584.748	24.4658
587.641	26.4308
590.534	23.3035
593.426	22.6293
596.319	17.958
599.212	14.7657
602.105	11.8513
604.997	12.8154
607.89	12.0686
610.783	13.7848
613.675	16.4535
616.568	19.4795
619.461	21.3923
622.353	24.2763
625.246	27.9133
628.139	33.8905
631.031	34.3965
633.924	38.7192
636.817	39.977
639.71	40.5391
642.602	42.7087
645.495	37.9915
648.388	38.2009
651.28	36.5449
654.173	32.7674
657.066	27.055
659.958	24.9922
662.851	21.4429
665.744	16.0091
668.636	12.2126
671.529	10.0041
674.422	8.06311
677.315	4.22122
680.207	2.94322
683.1	0.666016
685.993	1.10307
688.885	1.19725
691.778	1.46007
694.671	0.190872
697.563	0.167969
700.456	3.04108
703.349	3.37051
706.242	3.57936
709.134	7.6676
712.027	8.68751
714.92	8.77208
717.812	10.5317
720.705	9.60703
723.598	9.29886
726.49	8.00096
729.383	6.82593
732.276	6.49156
735.169	4.61563
738.061	4.29244
740.954	3.52338
743.847	2.88803
746.739	1.68651
749.632	0.534378
752.525	0.408401
755.418	0.497452
758.31	0.432465
761.203	1.65506
764.096	1.30847
766.988	3.41679
769.881	5.59277
772.774	6.59663
775.666	8.92751
778.559	9.82373
781.452	12.3958
784.345	11.8004
787.237	14.2937
790.13	15.5606
793.023	16.7189
795.915	16.3333
798.808	16.7635
801.701	16.0634
804.593	15.9597
807.486	17.3982
810.379	15.5846
813.271	14.5076
816.164	13.4515
819.057	11.2833
821.949	11.4448
824.842	10.6564
827.735	9.91382
830.628	9.78555
833.52	8.84331
836.413	7.75885
839.306	6.64368
842.198	5.99252
845.091	5.53954
847.984	4.70714
850.876	4.69275
853.769	4.61586
856.662	4.94283
859.555	3.6107
862.447	3.30306
865.34	4.10004
868.233	4.04843
871.125	3.95695
874.018	4.91258
876.911	4.76952
879.803	4.35643
882.696	4.86848
885.589	3.52949
888.482	4.42081
891.374	4.26614
894.267	2.81575
897.16	2.33508
900.052	2.48467
902.945	0.105042
905.838	0.319046
908.731	0.68071
911.623	0.246414
914.516	0.283585
917.409	0.386795
920.301	0.027557
923.194	0.28006
926.087	0.739868
928.979	0.129807
931.872	1.42671
934.765	1.18625
937.658	0.598938
940.55	0.734055
943.443	0.53035
946.336	1.60106
949.228	3.70021
952.121	2.51282
955.014	3.66512
957.906	1.86047
960.799	3.67358
963.692	3.48615
966.584	3.34947
969.477	2.26521
972.37	2.39843
975.263	1.65772
978.155	2.25504
981.048	0.800674
983.941	0.197998
986.833	1.01187
989.726	0.683777
992.619	0.409744
995.511	0.855972
998.404	-0.218547
1001.3	0.078898
1004.19	0.35524
1007.08	0.313965
1009.98	0.243546
1012.87	0.779007
1015.76	0.185822
1018.65	0.01001
1021.55	0.483856
1024.44	2.34973
1027.33	2.51662
1030.22	2.75989
1033.12	5.49225
1036.01	5.28458
1038.9	9.71899
1041.8	11.2705
1044.69	14.415
1047.58	17.0041
1050.47	20.8341
1053.37	24.1939
1056.26	25.995
1059.15	27.9748
1062.04	31.7456
1064.94	33.1683
1067.83	33.0321
1070.72	32.7028
1073.61	32.7878
1076.51	32.567
1079.4	28.7087
1082.29	26.5099
1085.18	24.1323
1088.08	22.0861
1090.97	17.7778
1093.86	13.7575
1096.76	9.04208
1099.65	4.43121
1102.54	2.98203
1105.43	0.386017
1108.33	0.524109
1111.22	0.668304
1114.11	0.457275
1117.01	1.34878
1119.9	8.22739
1122.79	16.2813
1125.68	23.5495
1128.58	31.8307
1131.47	39.8475
1134.36	54.2742
1137.25	60.4219
1140.15	67.103
1143.04	75.6034
1145.93	82.6269
1148.82	88.2463
1151.72	96.0115
1154.61	101.966
1157.5	103.544
1160.39	100.331
1163.29	102.848
1166.18	91.9622
1169.07	88.0461
1171.97	78.2131
1174.86	73.3803
1177.75	64.1561
1180.64	58.2652
1183.54	47.7378
1186.43	37.193
1189.32	30.7608
1192.21	25.955
1195.11	15.2881
1198	8.00952
1200.89	1.47314
1203.79	3.82074
1206.68	6.4707
1209.57	7.74976
1212.46	5.1698
1215.36	1.16803
1218.25	5.38733
1221.14	12.4867
1224.04	27.782
1226.93	44.4664
1229.82	62.6098
1232.71	78.9669
1235.61	106.93
1238.5	131.695
1241.39	155.87
1244.28	181.802
1247.18	199.997
1250.07	208.639
1252.96	222.123
1255.85	238.258
1258.75	243.76
1261.64	243.824
1264.53	230.277
1267.42	205.303
1270.32	176.499
1273.21	142.772
1276.1	99.6974
1279	61.1648
1281.89	22.7045
1284.78	0.309326
