Measurement: Raman, 780 nm, unoriented, Raman Data Processed
Mineral: Pyrochlore
Rruff sample: R080050
Ideal chemistry: Ca_2_Nb_2_O_7_
Locality: Hackman Valley, Yukspor Mountain, Khibiny, Kola, Russia
Source: Michael Scott
Description: Dark brown irregular grains on microcline
Raman shift (cm-1)	intensity
149.011	0
151.904	11.5078
154.796	49.0234
157.689	38.1973
160.582	22.3672
163.474	1.9375
166.367	19.3438
169.26	59.4902
172.152	73.5508
175.045	76.9004
177.938	48.1387
180.831	87.6738
183.723	53.5625
186.616	81.9883
189.509	46.8047
192.401	32.2773
195.294	21.0508
198.187	21.2148
201.079	37.3301
203.972	29.4336
206.865	48.1504
209.757	103.887
212.65	59.0039
215.543	39.5723
218.436	95.2832
221.328	105.75
224.221	163.977
227.114	124.268
230.006	124.533
232.899	103.295
235.792	98.4023
238.685	99.2012
241.577	115.926
244.47	115.783
247.363	91.5332
250.255	55.6113
253.148	61.8184
256.041	74.8164
258.933	79.7519
261.826	138.322
264.719	103.082
267.611	100.852
270.504	84.4531
273.397	96.4394
276.29	72.6367
279.182	84.2754
282.075	72.9941
284.968	119.262
287.86	112.242
290.753	119.748
293.646	121.908
296.538	85.4121
299.431	64.6543
302.324	32.5059
305.217	1.35938
308.109	6.55078
311.002	10.8867
313.895	5.11719
316.787	58.2461
319.68	63.4688
322.573	84.5742
325.466	43.5547
328.358	14.6562
331.251	15.502
334.144	18.4434
337.036	87.6562
339.929	97.4981
342.822	69.6289
345.714	32.3242
348.607	27.0625
351.5	50.5996
354.392	63.4062
357.285	56.1934
360.178	105.332
363.071	65.3281
365.963	9.68164
368.856	8.15625
371.749	68.7988
374.641	37.1113
377.534	51.7344
380.427	40.3379
383.32	66.8438
386.212	1.26953
389.105	12.4961
391.998	17.4668
394.89	11.0137
397.783	23.0039
400.676	87.4062
403.568	50.666
406.461	57.375
409.354	60.2578
412.247	76.5488
415.139	125.248
418.032	103.643
420.925	91.7988
423.817	170.098
426.71	122.84
429.603	130.324
432.495	186.238
435.388	162.287
438.281	166.471
441.173	161.824
444.066	176.352
446.959	194.156
449.852	205.545
452.744	199.435
455.637	208.125
458.53	203.002
461.422	239.424
464.315	238.344
467.208	241.518
470.101	207.736
472.993	199.809
475.886	216.451
478.779	230.772
481.671	211.068
484.564	206.881
487.457	165.455
490.349	124.119
493.242	139.889
496.135	125.414
499.027	66.4004
501.92	72.6133
504.813	89.0664
507.706	155.025
510.598	115.334
513.491	152.141
516.384	102.9
519.276	105.918
522.169	64.5566
525.062	44.1055
527.955	7.38672
530.847	14.5449
533.74	24.0117
536.633	12.8926
539.525	30.5254
542.418	5.29492
545.311	19.5527
548.203	18.9277
551.096	21.7637
553.989	48
556.881	23.4844
559.774	49.5859
562.667	20.248
565.56	7.02148
568.452	16.7832
571.345	32.6621
574.238	72.9199
577.13	72.1484
580.023	79.7461
582.916	38.7285
585.808	3.53711
588.701	72.834
591.594	28.7949
594.487	96.416
597.379	22.584
600.272	54.7578
603.165	4.59766
606.057	34.541
608.95	51.498
611.843	46.0391
614.736	37.3789
617.628	13.959
620.521	26.2852
623.414	41.207
626.306	103.166
629.199	99.75
632.092	88.9238
634.984	120.709
637.877	101.088
640.77	104.553
643.663	61.6562
646.555	36.8379
649.448	69.9922
652.341	68.7637
655.233	69.9551
658.126	58.8164
661.019	74.9707
663.911	42.9492
666.804	27.8027
669.697	74.6856
672.59	22.6797
675.482	40.8848
678.375	61.0117
681.268	29.2266
684.16	9.6582
687.053	36.9727
689.946	24.375
692.838	20.3086
695.731	58.3887
698.624	41.125
701.516	23.543
704.409	53.7168
707.302	63.7637
710.195	69.8789
713.087	98.2461
715.98	83.2891
718.873	52.2773
721.765	97.4531
724.658	42.457
727.551	48.3633
730.443	73.7715
733.336	123.519
736.229	48.7637
739.122	66.7207
742.014	40.4512
744.907	40.6309
747.8	17.0469
750.692	40.4121
753.585	24.957
756.478	31.7969
759.37	10.9824
762.263	4.81445
765.156	52.9551
768.049	10.6172
770.941	5.30469
773.834	5.4375
776.727	29.3691
779.619	17.3633
782.512	42.1172
785.405	59.0566
788.298	41.0625
791.19	90.6348
794.083	38.2637
796.976	75.6504
799.868	43.9922
802.761	24.4785
805.654	32.7246
808.546	160.342
811.439	131.08
814.332	109.975
817.225	103.647
820.117	98.5156
823.01	34.2129
825.903	79.1562
828.795	61.873
831.688	87.6777
834.581	87.041
837.473	81.2676
840.366	72.8418
843.259	79.1523
846.151	48.0234
849.044	94.2676
851.937	86.1426
854.83	23.9492
857.722	10.0449
860.615	49.4062
863.508	42.5957
866.4	69.0879
869.293	29.375
872.186	44.1719
875.078	26.502
877.971	65.9609
880.864	14.0234
883.756	55.334
886.649	38.1719
889.542	7.0332
892.435	51.4512
895.327	33.8047
898.22	29.5273
901.113	34.791
904.005	48.3633
906.898	25.0449
909.791	0.662109
912.683	21.5957
915.576	52.9141
918.469	46.4531
921.362	7.40039
924.254	40.3047
927.147	35.5156
930.04	41.0684
932.932	82.293
935.825	8.49023
938.718	30.7148
941.611	84.9394
944.503	36.4238
947.396	40.4102
950.289	46.8984
953.181	69.7969
956.074	55.5664
958.967	75.5996
961.859	88.5703
964.752	87.2734
967.645	40.3984
970.538	23.75
973.43	16.2754
976.323	0.9375
979.216	11.5293
982.108	25.4473
985.001	25.373
987.894	16.1895
990.786	29.6797
993.679	5.85742
996.572	57.7188
999.465	24.9551
1002.36	50.4688
1005.25	22.4922
1008.14	43.1504
1011.03	56.5332
1013.93	64.9356
1016.82	73.5469
1019.71	59.957
1022.61	95.0273
1025.5	90.2461
1028.39	96.5449
1031.28	96.8613
1034.18	90.5312
1037.07	53.082
1039.96	76.9629
1042.86	86.0117
1045.75	104.547
1048.64	69.2949
1051.53	116.918
1054.43	86.0508
1057.32	112.24
1060.21	131.033
1063.1	97.5644
1066	100.189
1068.89	128.734
1071.78	129.391
1074.67	102.928
1077.57	106.572
1080.46	73.5703
1083.35	99.3867
1086.24	86.5156
1089.14	87.8106
1092.03	114.092
1094.92	57.6328
1097.82	33.6133
1100.71	8.02344
1103.6	10.6113
1106.49	9.2168
1109.39	10.3262
1112.28	0.132813
1115.17	9.8125
1118.07	0.345703
1120.96	6
1123.85	0.683594
1126.74	33.3828
1129.64	24.3711
1132.53	24.9062
1135.42	34.375
1138.31	25.4277
1141.21	31.752
1144.1	55.3379
1146.99	55.6953
1149.88	73.7539
1152.78	66.0684
1155.67	44.3926
1158.56	90.6484
1161.46	118.85
1164.35	102.791
1167.24	113.391
1170.13	100.838
1173.03	118.068
1175.92	152.992
1178.81	134.43
1181.7	179.098
1184.6	129.498
1187.49	132.141
1190.38	172.66
1193.28	108.596
1196.17	108.184
1199.06	123.994
1201.95	124.434
1204.85	149.914
1207.74	150.096
1210.63	112.477
1213.52	147.223
1216.42	75.7656
1219.31	69.5332
1222.2	53.043
1225.1	44.4043
1227.99	6.40625
1230.88	57.2715
1233.77	58.2812
1236.67	55.0449
1239.56	80.0859
1242.45	58.0098
1245.34	27.3652
1248.24	102.385
1251.13	41.6504
1254.02	62.8398
1256.91	32.6406
1259.81	14.6543
1262.7	30.1289
1265.59	23.7109
1268.49	49.6406
1271.38	48.377
1274.27	76.2148
1277.16	57.9082
1280.06	80.1856
1282.95	66.3144
1285.84	29.043
