Measurement: Raman, 780 nm, unoriented, Raman Data Processed
Mineral: Pyrolusite
Rruff sample: R050361
Ideal chemistry: Mn^4+^O_2_
Locality: Serra do Navio, Amapa, Brazil
Source: University of Arizona Mineral Museum
Description: Black prismatic crystals
Measured chemistry: Mn_1.00_O_2_
Raman shift (cm-1)	intensity
128.2	0
131.575	0.583294
134.95	0.617397
138.325	1.48958
141.699	0.020689
145.074	0.566462
148.449	1.25363
151.824	0.479902
155.199	1.20852
158.573	1.27913
161.948	0.60631
165.323	1.15418
168.698	1.14501
172.073	1.00526
175.447	1.29376
178.822	0.534477
182.197	0.373692
185.572	0.354069
188.947	0.078699
192.322	1.18453
195.696	1.19249
199.071	1.42323
202.446	0.565134
205.821	0.064829
209.196	2.28163
212.571	1.65904
215.945	2.13581
219.32	2.1743
222.695	0.654522
226.07	0.697159
229.445	1.29293
232.819	0.283949
236.194	2.34928
239.569	0.528008
242.944	1.73409
246.319	1.10518
249.694	1.35973
253.068	1.34469
256.443	0.743587
259.818	0.844084
263.193	1.03008
266.567	0.284119
269.942	0.936069
273.317	1.0189
276.692	1.54075
280.067	2.05631
283.442	2.0745
286.816	1.25206
290.191	2.55116
293.566	1.42639
296.941	1.74304
300.316	0.404245
303.69	1.45545
307.065	2.54291
310.44	1.86661
313.815	1.88275
317.19	1.19853
320.565	2.45172
323.939	0.961676
327.314	1.63288
330.689	3.67236
334.064	0.054205
337.439	1.60145
340.813	0.420664
344.188	1.64634
347.563	1.02933
350.938	1.97982
354.313	2.3564
357.688	2.1786
361.062	1.66799
364.437	0.774734
367.812	3.02436
371.187	1.4429
374.562	1.63757
377.937	1.37601
381.311	3.22066
384.686	2.81649
388.061	1.79636
391.436	1.74795
394.81	3.06219
398.185	0.012338
401.56	1.81382
404.935	1.41253
408.31	2.94831
411.685	0.212263
415.059	0.2857
418.434	1.49104
421.809	0.640212
425.184	0.076086
428.559	0.265491
431.933	1.00585
435.308	0.521418
438.683	0.944407
442.058	0.739946
445.433	1.70248
448.808	1.20884
452.182	1.44604
455.557	1.2537
458.932	2.06721
462.307	1.85463
465.682	1.26186
469.057	1.05111
472.431	0.665689
475.806	2.26147
479.181	1.50404
482.556	0.307604
485.931	0.135456
489.305	1.03018
492.68	0.856638
496.055	0.059069
499.43	1.1794
502.805	1.62806
506.18	1.09247
509.554	1.46137
512.929	1.19086
516.304	0.368244
519.679	1.73501
523.054	0.544778
526.428	2.19349
529.803	1.25185
533.178	1.7653
536.553	2.49608
539.928	1.10433
543.303	1.82879
546.677	1.40083
550.052	0.634386
553.427	0.442929
556.802	2.07615
560.177	0.134064
563.551	0.127553
566.926	1.17837
570.301	1.36584
573.676	1.76993
577.051	0.875913
580.426	1.43618
583.8	0.574799
587.175	0.669888
590.55	0.421587
593.925	2.15645
597.299	1.60534
600.674	2.31205
604.049	2.84533
607.424	2.66999
610.799	2.87744
614.174	1.76936
617.548	0.755917
620.923	2.60068
624.298	2.30723
627.673	2.85152
631.048	0.991406
634.423	3.62475
637.797	4.28196
641.172	3.74509
644.547	5.04636
647.922	5.73751
651.297	7.94833
654.671	7.84204
658.046	7.53159
661.421	8.55113
664.796	7.01439
668.171	5.18401
671.545	4.92644
674.92	3.59951
678.295	1.63317
681.67	1.75117
685.045	2.29417
688.42	2.08245
691.794	1.28402
695.169	0.12427
698.544	0.901278
701.919	0.040468
705.294	0.53642
708.668	1.6991
712.043	0.316438
715.418	1.1672
718.793	1.29147
722.168	0.965976
725.543	1.74464
728.917	0.521283
732.292	0.243836
735.667	2.2383
739.042	1.7786
742.417	3.22292
745.791	1.79865
749.166	2.43066
752.541	3.80444
755.916	2.97214
759.291	2.73523
762.665	2.52831
766.04	0.131751
769.415	2.12955
772.79	2.34223
776.165	0.492029
779.54	0.594711
782.914	0.900182
786.289	0.064351
789.664	1.56525
793.039	1.69494
796.414	1.23621
799.788	1.79596
803.163	2.41324
806.538	2.06083
809.913	2.51773
813.288	1.65817
816.663	1.92339
820.037	2.22865
823.412	1.3519
826.787	2.07092
830.162	2.13854
833.537	1.26587
836.912	1.23331
840.286	1.65831
843.661	0.71773
847.036	2.26229
850.411	3.08834
853.786	2.61733
857.16	4.16285
860.535	4.42097
863.91	2.34781
867.285	1.30832
870.66	1.59629
874.034	2.91934
877.409	1.9137
880.784	3.04362
884.159	3.02685
887.534	1.93272
890.909	1.24634
894.283	2.75735
897.658	2.43689
901.033	1.08053
904.408	0.550858
907.783	0.697617
911.158	0.780981
914.532	0.621112
917.907	2.63266
921.282	0.591478
924.657	1.21467
928.032	1.78314
931.406	2.10413
934.781	0.535961
938.156	0.072527
941.531	0.618915
944.906	0.417382
948.28	1.30002
951.655	1.18697
955.03	1.89012
958.405	2.06937
961.78	1.67032
965.154	1.30325
968.529	0.817738
971.904	1.36967
975.279	1.08518
978.654	1.92343
982.029	1.55602
985.403	0.67941
988.778	0.431242
992.153	1.23383
995.528	1.45602
998.903	0.890505
1002.28	1.32084
1005.65	0.499566
1009.03	0.333432
1012.4	1.19853
1015.78	0.649864
1019.15	1.19607
1022.53	1.46189
1025.9	0.805364
1029.28	1.59856
1032.65	1.94052
1036.03	0.818816
1039.4	0.518371
1042.78	0.957876
1046.15	0.839517
1049.53	1.32022
1052.9	0.690971
1056.28	0.504864
1059.65	1.51083
1063.02	0.331901
1066.4	1.5677
1069.77	2.06665
1073.15	2.63534
1076.52	1.73469
1079.9	0.484171
1083.27	1.59702
1086.65	0.66888
1090.02	0.938625
1093.4	0.856765
1096.77	1.12378
1100.15	0.502676
1103.52	0.251589
1106.9	0.605684
1110.27	1.42956
1113.65	1.86354
1117.02	1.40822
1120.4	1.10631
1123.77	0.52157
1127.15	1.21259
1130.52	0.809431
1133.89	0.868968
1137.27	1.48616
1140.64	1.68019
1144.02	1.36207
1147.39	1.55735
1150.77	1.05152
1154.14	0.405799
1157.52	1.64236
1160.89	1.38521
1164.27	0.753914
1167.64	0.438133
1171.02	1.1203
1174.39	0.289268
1177.77	0.56396
1181.14	2.53991
1184.52	1.935
1187.89	1.17706
1191.27	1.26443
1194.64	0.573953
1198.02	0.63475
1201.39	1.40336
1204.77	0.867737
1208.14	1.85849
1211.52	0.57893
1214.89	0.841632
1218.27	1.35534
1221.64	1.22285
1225.02	1.37455
1228.39	0.697468
1231.77	1.44105
1235.14	1.02563
1238.52	1.62399
1241.89	1.01377
1245.26	0.799109
1248.64	1.33351
1252.01	0.948419
1255.39	1.52227
1258.76	2.40144
1262.14	1.45708
1265.51	0.322315
1268.89	1.98486
1272.26	2.48408
1275.64	1.54634
1279.01	2.03736
1282.39	1.2302
1285.76	0.082432
