Measurement: Raman, 780 nm, unoriented, Raman Data Processed
Mineral: Pyrrhotite
Rruff sample: R061127
Ideal chemistry: Fe^2+^_5_Fe^3+^_2_S^2-^_8_
Locality: Morro Velho Gold mine, Nova Umha, Minas Gerais, Brazil
Source: Michael Scott
Description: Brass colored, prismatic crystals associated with quartz and dolomite
Raman shift (cm-1)	intensity
196.189	0
199.082	2.36205
201.974	4.45579
204.867	1.50656
207.76	1.73194
210.652	6.63786
213.545	2.09528
216.438	6.61834
219.331	5.16781
222.223	7.22105
225.116	4.516
228.009	4.49444
230.901	1.39578
233.794	2.40213
236.687	1.37309
239.579	6.22386
242.472	0.740021
245.365	6.80796
248.257	3.14825
251.15	1.17552
254.043	3.74733
256.936	6.21173
259.828	2.73156
262.721	4.49453
265.614	0.187828
268.506	9.82847
271.399	4.35209
274.292	8.13035
277.185	4.61116
280.077	5.52096
282.97	9.35667
285.863	8.46941
288.755	5.13034
291.648	9.91511
294.541	7.83801
297.433	7.55332
300.326	8.17433
303.219	9.90625
306.111	6.61245
309.004	9.66333
311.897	7.63218
314.79	8.33322
317.682	10.3258
320.575	7.60977
323.468	7.34965
326.36	14.3127
329.253	9.49955
332.146	6.05498
335.038	8.47739
337.931	4.18331
340.824	8.84133
343.717	1.63998
346.609	2.37032
349.502	2.0745
352.395	1.058
355.287	5.36434
358.18	7.35787
361.073	4.89098
363.965	2.43543
366.858	1.20538
369.751	3.61997
372.644	5.22578
375.536	5.32087
378.429	5.75559
381.322	1.61456
384.214	0.485733
387.107	5.81635
390	6.46678
392.892	3.06224
395.785	1.72084
398.678	2.57748
401.57	6.83761
404.463	1.957
407.356	9.67462
410.249	4.5688
413.141	5.44159
416.034	1.31098
418.927	1.85121
421.819	0.031498
424.712	2.13284
427.605	7.38722
430.498	0.339488
433.39	6.5928
436.283	2.78857
439.176	7.5341
442.068	4.2878
444.961	7.23625
447.854	1.24862
450.746	6.71415
453.639	7.61492
456.532	0.870646
459.425	0.550482
462.317	1.01128
465.21	4.19687
468.103	1.00591
470.995	4.21352
473.888	0.923377
476.781	2.56684
479.673	3.96982
482.566	0.9289
485.459	5.55451
488.351	2.85329
491.244	6.14148
494.137	5.8475
497.029	0.795792
499.922	1.22494
502.815	5.04533
505.708	3.82442
508.6	2.19867
511.493	1.26812
514.386	7.39438
517.278	5.06855
520.171	3.65221
523.064	4.73702
525.957	5.08696
528.849	4.9042
531.742	5.04176
534.635	2.14972
537.527	2.07316
540.42	1.91743
543.313	6.79767
546.205	3.49421
549.098	8.0436
551.991	8.76995
554.884	5.2488
557.776	11.1253
560.669	0.153694
563.562	0.478937
566.454	2.6534
569.347	1.06309
572.24	4.83341
575.132	4.8104
578.025	6.62087
580.918	2.91634
583.811	5.93162
586.703	2.99083
589.596	5.6999
592.489	4.27639
595.381	3.84883
598.274	3.2344
601.167	8.68599
604.059	1.62474
606.952	5.96952
609.845	5.54491
612.737	4.10087
615.63	0.431425
618.523	2.14118
621.416	4.93613
624.308	2.213
627.201	2.32998
630.094	0.434753
632.986	3.68733
635.879	4.80153
638.772	6.60733
641.664	6.26871
644.557	3.18927
647.45	7.36913
650.342	2.36115
653.235	3.85118
656.128	0.681902
659.021	5.48368
661.913	5.19864
664.806	3.13743
667.699	2.19353
670.591	4.38998
673.484	6.12286
676.377	6.52358
679.269	5.32626
682.162	3.51615
685.055	5.41751
687.948	6.74924
690.84	5.10334
693.733	0.897963
696.626	2.99616
699.518	1.42492
702.411	3.558
705.304	1.62496
708.197	3.39481
711.089	2.19657
713.982	4.67777
716.875	2.13929
719.767	0.928025
722.66	6.39052
725.553	1.52133
728.445	0.187484
731.338	1.74786
734.231	7.64449
737.124	8.15503
740.016	6.18824
742.909	2.6926
745.802	5.09524
748.694	5.52667
751.587	5.93224
754.48	4.22306
757.372	5.30621
760.265	2.74172
763.158	3.0327
766.051	6.47704
768.943	4.47818
771.836	1.49857
774.729	7.40729
777.621	0.165362
780.514	1.57427
783.407	2.92988
786.299	6.39219
789.192	4.70405
792.085	5.96978
794.977	0.091699
797.87	1.5847
800.763	4.7916
803.655	5.95344
806.548	6.29164
809.441	6.06422
812.334	2.32882
815.226	2.50744
818.119	1.90016
821.012	3.19041
823.904	2.47458
826.797	2.40285
829.69	6.39668
832.582	5.5997
835.475	2.36415
838.368	4.92237
841.261	5.27982
844.153	2.7733
847.046	0.117773
849.939	1.70843
852.831	1.78053
855.724	0.218928
858.617	5.80352
861.51	2.30871
864.402	4.25751
867.295	1.19445
870.188	5.73727
873.08	4.75828
875.973	3.61637
878.866	8.42271
881.758	1.15047
884.651	6.2582
887.544	1.05664
890.437	5.23256
893.329	5.91079
896.222	1.20899
899.115	5.67154
902.007	7.85101
904.9	5.05266
907.793	3.55232
910.685	1.06039
913.578	2.75607
916.471	8.80538
919.364	3.68366
922.256	2.08378
925.149	3.32533
928.042	5.2828
930.934	0.884874
933.827	1.91713
936.72	5.30156
939.612	5.4132
942.505	2.26259
945.398	1.51972
948.29	3.19782
951.183	4.28847
954.076	0.724673
956.968	4.15302
959.861	1.07327
962.754	3.71413
965.647	0.671144
968.539	3.73162
971.432	7.60446
974.325	5.48453
977.217	3.08775
980.11	4.53238
983.003	6.38499
985.895	1.58202
988.788	7.25297
991.681	5.76482
994.574	7.14415
997.466	3.91481
1000.36	1.71318
1003.25	4.37268
1006.14	3.54121
1009.04	4.47705
1011.93	0.02833
1014.82	7.42515
1017.72	5.52389
1020.61	7.06368
1023.5	5.39559
1026.39	4.80955
1029.29	4.11117
1032.18	2.3911
1035.07	7.59805
1037.96	5.67415
1040.86	2.38085
1043.75	1.80408
1046.64	3.2782
1049.54	5.39335
1052.43	7.18829
1055.32	2.92027
1058.21	3.94566
1061.11	6.14982
1064	4.31989
1066.89	4.04874
1069.78	6.52951
1072.68	4.18792
1075.57	7.80571
1078.46	7.42825
1081.35	1.7221
1084.25	7.82527
1087.14	7.72851
1090.03	8.94786
1092.92	3.29061
1095.82	4.49758
1098.71	4.64433
1101.6	3.76883
1104.5	4.45254
1107.39	3.54321
1110.28	6.17042
1113.17	1.13098
1116.07	2.79468
1118.96	5.02895
1121.85	6.61838
1124.74	5.71419
1127.64	4.23958
1130.53	7.95919
1133.42	5.76363
1136.32	3.63287
1139.21	7.23127
1142.1	4.70489
1144.99	3.47604
1147.89	1.19033
1150.78	1.96271
1153.67	0.457126
1156.57	0.618636
1159.46	3.95933
1162.35	3.68231
1165.24	6.35746
1168.13	4.26411
1171.03	4.50225
1173.92	6.86174
1176.81	0.057958
1179.71	8.3374
1182.6	1.13556
1185.49	7.58681
1188.38	4.56012
1191.28	5.45502
1194.17	3.38665
1197.06	4.89123
1199.95	3.81519
1202.85	6.61228
1205.74	2.80262
1208.63	6.92087
1211.53	9.37425
1214.42	3.4929
1217.31	0.496871
1220.2	8.1664
1223.1	3.45991
1225.99	4.14136
1228.88	8.02909
1231.78	2.91228
1234.67	4.07016
1237.56	2.64475
1240.45	3.19996
1243.35	2.1294
1246.24	9.57927
1249.13	3.11539
1252.02	7.60157
1254.92	2.97854
1257.81	4.56395
1260.7	6.43353
1263.59	2.06888
1266.49	8.8592
1269.38	9.36934
1272.27	3.11377
1275.16	9.3812
1278.06	0.106945
1280.95	0.128888
1283.84	2.73622
