Measurement: Raman, 780 nm, unoriented, Raman Data Processed
Mineral: Qilianshanite
Rruff sample: R100019
Ideal chemistry: NaH_4_(CO_3_)(BO_3_)2H_2_O
Locality: Lewis Cliff Ice Tongue, Antarctica
Source: Dave Bish
Description: Colorless to white granular massive with excellent bladed cleavage on individual crystalline grains
Raman shift (cm-1)	intensity
110.466	0
113.841	27.6445
117.215	46.6445
120.59	34.4023
123.965	104.676
127.34	138.301
130.714	197.172
134.089	210.527
137.464	236.949
140.839	171.953
144.214	207.449
147.589	177.062
150.963	83.5625
154.338	166.34
157.713	169.789
161.088	191.426
164.463	237.867
167.838	221.754
171.212	144.562
174.587	158.305
177.962	139.965
181.337	128.481
184.712	120.836
188.086	184.258
191.461	194.219
194.836	162.352
198.211	123.879
201.586	41.2227
204.96	93.168
208.335	118.672
211.71	136.426
215.085	65.1367
218.46	32.0586
221.835	25.5156
225.209	18.4727
228.584	90.1562
231.959	100.031
235.334	122.043
238.709	122.109
242.083	53.543
245.458	70.6992
248.833	113.793
252.208	122.07
255.583	52.2383
258.958	64.7695
262.332	34.2969
265.707	28.3867
269.082	10.0234
272.457	22.4961
275.832	53.1484
279.207	97.0117
282.581	100.547
285.956	76.3594
289.331	85.0195
292.706	20.3477
296.081	39.3906
299.455	7.19531
302.83	26.6172
306.205	16.7891
309.58	46.3984
312.955	6.76172
316.329	15.6992
319.704	55.6875
323.079	73.0078
326.454	27.7148
329.829	44.9648
333.204	41.7539
336.578	35.0938
339.953	139.137
343.328	98.3711
346.703	66.7461
350.078	125.473
353.452	59.8633
356.827	90.0234
360.202	64.7188
363.577	112.258
366.952	78.4414
370.327	122.703
373.701	30.1914
377.076	6.48438
380.451	11.1875
383.826	1.50781
387.201	42.9023
390.575	62.418
393.95	20.8711
397.325	55.9766
400.7	40.5195
404.075	47.6953
407.45	36.2422
410.824	93.1758
414.199	155.547
417.574	140.641
420.949	133.578
424.324	151.656
427.698	93.1836
431.073	165.731
434.448	146.293
437.823	142.996
441.198	127.246
444.572	116.293
447.947	154.477
451.322	148.867
454.697	131.922
458.072	104.172
461.447	183.715
464.821	193.781
468.196	241.481
471.571	245.648
474.946	255.031
478.321	122.012
481.695	81.2305
485.07	164.863
488.445	181.453
491.82	229.691
495.195	243.281
498.57	239.535
501.944	160.144
505.319	135.129
508.694	90.4219
512.069	97.875
515.444	170.746
518.818	86.2695
522.193	83.957
525.568	16.7188
528.943	75.4492
532.318	83.3047
535.693	14.4961
539.067	14.0508
542.442	44.5625
545.817	5.19531
549.192	13.2969
552.567	35.7617
555.942	17.5039
559.316	18.1602
562.691	7.72266
566.066	23.7852
569.441	113.57
572.816	35.7852
576.19	40.8242
579.565	40.293
582.94	85.6992
586.315	189.977
589.69	106.816
593.064	86.0117
596.439	5.14062
599.814	89.5781
603.189	97.8281
606.564	111.68
609.938	153.219
613.313	176.34
616.688	134.152
620.063	41.707
623.438	117.504
626.813	134.176
630.187	138.988
633.562	85.0586
636.937	88.168
640.312	114.652
643.687	77.1406
647.062	53.543
650.436	14.2656
653.811	12.8789
657.186	34.3789
660.561	135.969
663.936	83.75
667.31	155.75
670.685	98.1328
674.06	74.0117
677.435	58.7656
680.81	65.5664
684.184	45.9883
687.559	57.3711
690.934	4.32812
694.309	91.9336
697.684	101.027
701.059	92.5312
704.433	130.516
707.808	159.715
711.183	194.988
714.558	177.336
717.933	125.07
721.308	144.656
724.682	123.461
728.057	105.277
731.432	75.125
734.807	32.0312
738.182	44.1211
741.556	21.9961
744.931	37.332
748.306	10.043
751.681	54.5
755.056	43.8906
758.431	29.3711
761.805	33.6211
765.18	105.934
768.555	27.9688
771.93	5.67188
775.305	24.9453
778.679	8.90234
782.054	34.2148
785.429	28.9062
788.804	106.121
792.179	105.82
795.553	125.492
798.928	72.375
802.303	61.0098
805.678	96.0723
809.053	156.498
812.428	180.74
815.802	116.445
819.177	91.1133
822.552	70.6523
825.927	79.9375
829.302	91.5723
832.677	106.668
836.051	133.059
839.426	125.799
842.801	103.508
846.176	149.869
849.551	94.5508
852.925	166.981
856.3	166.435
859.675	160.438
863.05	110.279
866.425	132.949
869.799	150.053
873.174	204.769
876.549	258.041
879.924	253.621
883.299	196.662
886.673	116.43
890.048	45.3965
893.423	89.5508
896.798	9.17773
900.173	11.8359
903.548	35.0684
906.922	9.93945
910.297	26.5352
913.672	31.2754
917.047	51.7773
920.422	21.707
923.797	10.2988
927.171	41.9004
930.546	83.793
933.921	89.6934
937.296	70.4102
940.671	102.178
944.045	48.9512
947.42	42.7109
950.795	71.4023
954.17	95.9688
957.545	62.3613
960.919	24.7891
964.294	45.6895
967.669	35.041
971.044	4.23633
974.419	22.0254
977.794	9.92969
981.168	5.85938
984.543	17.7539
987.918	18.9219
991.293	46.8438
994.668	40.498
998.043	128.602
1001.42	176.674
1004.79	164.891
1008.17	120.193
1011.54	105.258
1014.92	105.934
1018.29	170.828
1021.67	160.07
1025.04	133.94
1028.42	162.047
1031.79	175.984
1035.17	171.281
1038.54	229.994
1041.91	120.828
1045.29	97.8496
1048.66	103.682
1052.04	54.1133
1055.41	61.2617
1058.79	37.8008
1062.16	129.738
1065.54	74.9375
1068.91	73.0059
1072.29	80.2812
1075.66	104.744
1079.04	76.334
1082.41	71.8555
1085.79	79.4238
1089.16	87.4023
1092.54	75.7695
1095.91	31.5918
1099.29	26.4512
1102.66	47.3125
1106.04	24.7207
1109.41	43.1484
1112.79	48.8798
1116.16	4.05469
1119.54	13.4277
1122.91	51.0176
1126.29	31.8679
1129.66	20.1328
1133.04	54.4883
1136.41	70.3164
1139.79	51.125
1143.16	104.582
1146.53	101.562
1149.91	90.2481
1153.28	87.5684
1156.66	136.451
1160.03	157.736
1163.41	180.57
1166.78	173.357
1170.16	237.475
1173.53	200.162
1176.91	171.023
1180.28	139.75
1183.66	159.371
1187.03	147.574
1190.41	150.893
1193.78	165.172
1197.16	165.769
1200.53	110.043
1203.91	100.166
1207.28	126.6
1210.66	144.525
1214.03	143.664
1217.41	48.5059
1220.78	13.6328
1224.15	8.05664
1227.53	58.9707
1230.9	54.1152
1234.28	136.795
1237.65	128.34
1241.03	78.0566
1244.4	82.8066
1247.78	138.353
1251.15	59.3516
1254.53	33.7773
1257.9	7.54883
1261.28	16.5059
1264.65	67.5801
1268.03	35.7832
1271.4	32.7754
1274.78	51.832
1278.15	100.082
1281.53	28.0762
1284.9	24.9922
