Measurement: Raman, 532 nm, unoriented, Raman Data Processed
Mineral: Radhakrishnaite
Rruff sample: R070711
Ideal chemistry: PbTe_3_(Cl,S)_2_
Locality: Oktyabr'skoye Cu-Ni Deposit (Oktyabr'sk Deposit),  Noril'sk,  Putoran Plateau,  Krasnoyarsk Territory (Krasnoyarsk Kray; Krasnoyarskii Krai),  Eastern-Siberian Region,  Russia
Source: Michael Scott
Description: Opaque brown grain in polished section
Raman shift (cm-1)	intensity
151.947	0
154.84	112.738
157.732	53.9188
160.625	8.83801
163.518	66.7749
166.411	74.4711
169.303	61.8445
172.196	47.6802
175.089	56.8795
177.981	81.2864
180.874	78.1298
183.767	71.3868
186.659	81.0545
189.552	33.2609
192.445	38.3745
195.338	79.2362
198.23	5.68677
201.123	14.3669
204.016	21.8959
206.908	60.0352
209.801	79.4992
212.694	14.8563
215.586	118.1
218.479	109.276
221.372	120.147
224.264	107.178
227.157	151.693
230.05	156.708
232.943	120.254
235.835	86.4929
238.728	73.1787
241.621	101.478
244.513	95.062
247.406	81.5511
250.299	92.8227
253.191	32.5709
256.084	77.3627
258.977	101.027
261.87	117.13
264.762	58.9936
267.655	80.8412
270.548	64.2285
273.44	68.306
276.333	73.6488
279.226	92.8685
282.118	71.0594
285.011	42.8101
287.904	52.3396
290.796	62.0639
293.689	10.9585
296.582	14.5989
299.475	58.3282
302.367	11.6093
305.26	17.4932
308.153	33.9968
311.045	40.3826
313.938	14.1919
316.831	19.3458
319.724	6.56772
322.616	61.7312
325.509	25.5979
328.402	39.7136
331.294	29.1808
334.187	9.92871
337.08	2.90537
339.972	36.6918
342.865	12.8439
345.758	63.8844
348.651	36.5769
351.543	57.1833
354.436	70.788
357.329	18.3694
360.221	35.9099
363.114	14.513
366.007	40.3088
368.899	11.5087
371.792	10.3134
374.685	32.8648
377.577	70.8995
380.47	10.4772
383.363	15.2822
386.256	42.3855
389.148	22.4089
392.041	34.4034
394.934	40.698
397.826	53.2806
400.719	1.3053
403.612	51.1033
406.505	65.0104
409.397	68.0842
412.29	58.683
415.183	34.3567
418.075	28.4985
420.968	71.3115
423.861	23.1097
426.753	32.2344
429.646	9.80551
432.539	40.2006
435.432	36.02
438.324	47.2893
441.217	58.451
444.11	15.8089
447.002	81.3271
449.895	27.9225
452.788	0.30838
455.68	73.9856
458.573	29.0524
461.466	27.1759
464.358	27.8632
467.251	6.60016
470.144	39.1789
473.037	41.8169
475.929	31.4174
478.822	27.7404
481.715	52.3204
484.607	53.6777
487.5	39.9078
490.393	59.0287
493.286	39.044
496.178	30.5651
499.071	48.1232
501.964	18.0828
504.856	45.217
507.749	68.4766
510.642	37.6635
513.534	38.3752
516.427	1.06296
519.32	36.021
522.212	21.1948
525.105	24.2173
527.998	2.26212
530.891	47.8353
533.783	2.01092
536.676	49.5915
539.569	38.3489
542.461	65.7573
545.354	51.0054
548.247	39.9535
551.139	79.4462
554.032	23.8384
556.925	58.6169
559.818	73.7406
562.71	40.7687
565.603	47.2685
568.496	37.4877
571.388	37.8735
574.281	34.4563
577.174	67.7377
580.067	44.7578
582.959	17.9753
585.852	62.0295
588.745	18.4178
591.637	32.7027
594.53	29.8444
597.423	29.3559
600.315	31.0383
603.208	40.043
606.101	22.5422
608.994	0.636749
611.886	40.6301
614.779	26.6136
617.672	51.9419
620.564	34.2008
623.457	39.0842
626.35	63.2733
629.242	59.4128
632.135	52.3424
635.028	38.5238
637.92	10.437
640.813	56.1459
643.706	34.2084
646.599	45.1155
649.491	20.196
652.384	41.9424
655.277	10.3196
658.169	77.958
661.062	4.20151
663.955	36.9336
666.847	59.6638
669.74	28.3531
672.633	23.2864
675.525	37.7918
678.418	29.1655
681.311	64.4832
684.204	16.3906
687.096	34.9909
689.989	8.54253
692.882	9.32892
695.774	34.5791
698.667	51.1872
701.56	46.0094
704.452	15.7049
707.345	51.3479
710.238	45.833
713.131	11.1065
716.023	19.7682
718.916	30.0532
721.809	27.0201
724.701	59.9599
727.594	19.43
730.487	12.1834
733.38	16.6241
736.272	23.2124
739.165	20.7286
742.058	67.6345
744.95	24.0137
747.843	38.9312
750.736	57.0422
753.628	36.1334
756.521	22.1026
759.414	2.576
762.307	23.3904
765.199	64.5284
768.092	23.8136
770.985	37.6138
773.877	25.3035
776.77	21.6012
779.663	46.6861
782.555	2.29231
785.448	38.0352
788.341	24.1965
791.234	18.3884
794.126	9.32886
797.019	19.8027
799.912	4.06662
802.804	6.78821
805.697	23.1784
808.59	21.9299
811.482	9.39966
814.375	16.2072
817.268	13.4261
820.16	20.5938
823.053	37.2195
825.946	28.7558
828.839	22.7905
831.731	41.5218
834.624	1.97018
837.517	1.8122
840.409	29.1036
843.302	65.428
846.195	6.18574
849.087	35.3509
851.98	46.1056
854.873	7.56259
857.766	76.7632
860.658	20.8998
863.551	42.2163
866.444	46.0671
869.336	39.4962
872.229	23.0004
875.122	84.1325
878.014	32.3291
880.907	14.1307
883.8	25.4504
886.693	45.2152
889.585	5.70042
892.478	48.5018
895.371	58.5391
898.263	44.4474
901.156	13.2129
904.049	53.229
906.942	53.2726
909.834	28.5713
912.727	38.5132
915.62	38.9948
918.512	28.3022
921.405	14.2081
924.298	41.2755
927.19	10.1938
930.083	6.92364
932.976	48.9524
935.869	22.4947
938.761	69.7534
941.654	56.5443
944.547	28.8793
947.439	44.0979
950.332	7.97166
953.225	22.3305
956.117	52.6716
959.01	27.6506
961.903	59.0438
964.795	28.0922
967.688	55.7765
970.581	6.22466
973.474	38.2791
976.366	16.9626
979.259	13.4662
982.152	17.9924
985.044	17.16
987.937	7.21962
990.83	46.5429
993.722	3.52788
996.615	20.7975
999.508	5.05396
1002.4	28.176
1005.29	10.6489
1008.19	40.5604
1011.08	14.6611
1013.97	43.8144
1016.86	21.2215
1019.76	52.4414
1022.65	37.787
1025.54	35.0214
1028.43	61.4678
1031.33	43.6507
1034.22	46.7712
1037.11	47.7501
1040.01	25.616
1042.9	4.64572
1045.79	36.6826
1048.68	42.4969
1051.58	8.22153
1054.47	17.6802
1057.36	33.5514
1060.26	48.4739
1063.15	31.9756
1066.04	3.8681
1068.93	41.7647
1071.83	29.5997
1074.72	35.7094
1077.61	50.2862
1080.5	49.4299
1083.4	30.4557
1086.29	11.3377
1089.18	35.1913
1092.07	47.3949
1094.97	27.118
1097.86	43.5842
1100.75	29.9124
1103.64	20.817
1106.54	23.9451
1109.43	21.5566
1112.32	34.1978
1115.22	20.7911
1118.11	5.81781
1121	30.0433
1123.89	17.3417
1126.79	35.6129
1129.68	34.3945
1132.57	37.8201
1135.46	14.771
1138.36	50.1326
1141.25	37.1747
1144.14	0.879181
1147.04	33.6607
1149.93	15.401
1152.82	7.83336
1155.71	30.4336
1158.61	2.29004
1161.5	16.7471
1164.39	13.2712
1167.28	36.5553
1170.18	40.5059
1173.07	14.0669
1175.96	15.6359
1178.86	54.6159
1181.75	24.4104
1184.64	58.6217
1187.53	34.8494
1190.43	46.0763
1193.32	22.5295
1196.21	74.4942
1199.1	35.1046
1202	34.8229
1204.89	23.1779
1207.78	26.5821
1210.67	19.2863
1213.57	45.7973
1216.46	26.8461
1219.35	26.3551
1222.25	38.6073
1225.14	47.0791
1228.03	18.664
1230.92	38.4425
1233.82	49.1889
1236.71	22.0751
1239.6	48.8869
1242.49	16.1393
1245.39	33.0882
1248.28	48.8362
1251.17	10.7301
1254.07	12.5627
1256.96	62.864
1259.85	49.8129
1262.74	14.787
1265.64	29.5269
1268.53	3.15872
1271.42	27.5472
1274.31	54.5566
1277.21	7.92847
1280.1	22.7597
1282.99	29.159
1285.88	16.3164
1288.78	46.3926
1291.67	29.9158
1294.56	7.73032
1297.46	16.9038
1300.35	6.03354
