Measurement: Raman, 532 nm, unoriented, Raman Data Processed
Mineral: Ramdohrite
Rruff sample: R110001
Ideal chemistry: Pb_5.9_Fe_0.1_Mn_0.1_In_0.1_Cd_0.2_Ag_2.8_Sb_10.8_S_24_
Locality: Chocaya, Potosi, Bolivia
Source: Mark N. Feinglos
Description: Massive, silver metallic associated with quartz and wurtzite
Raman shift (cm-1)	intensity
159.496	0
162.388	3.7159
165.281	6.41615
168.174	4.14706
171.067	5.74468
173.959	6.97595
176.852	8.69045
179.745	1.99379
182.637	0.815609
185.53	5.04343
188.423	2.33002
191.315	3.39101
194.208	2.7407
197.101	1.64817
199.994	2.35907
202.886	3.8393
205.779	1.13364
208.672	0.08261
211.565	3.6183
214.457	3.66938
217.35	4.13036
220.243	4.97443
223.135	7.35156
226.028	3.60384
228.921	3.79768
231.813	4.08784
234.706	4.94954
237.599	2.92414
240.492	8.19804
243.384	3.87714
246.277	2.34279
249.17	0.474896
252.062	3.02705
254.955	2.52993
257.848	4.03825
260.74	4.90652
263.633	5.0544
266.526	4.14222
269.418	4.26832
272.311	3.14558
275.204	1.54757
278.097	3.84125
280.989	4.98519
283.882	2.84316
286.775	0.455096
289.667	1.60811
292.56	3.17326
295.453	1.77369
298.346	1.16831
301.238	4.09042
304.131	3.97358
307.024	1.98847
309.916	0.777623
312.809	2.59542
315.702	0.641435
318.594	2.05157
321.487	5.31207
324.38	3.97767
327.273	2.90715
330.165	3.08865
333.058	1.44232
335.951	2.23263
338.843	0.16061
341.736	2.76554
344.629	4.50515
347.522	2.5031
350.414	0.962499
353.307	2.65203
356.2	2.48144
359.092	1.41196
361.985	0.188695
364.878	2.29998
367.77	0.237214
370.663	0.795515
373.556	1.86353
376.449	2.26829
379.341	1.11267
382.234	1.96752
385.127	1.13918
388.019	1.81336
390.912	0.671727
393.805	2.64085
396.697	0.281288
399.59	2.49602
402.483	2.20148
405.376	1.91974
408.268	0.784067
411.161	3.76531
414.054	1.96994
416.946	2.25019
419.839	2.80128
422.732	0.469132
425.625	3.98467
428.517	1.9123
431.41	1.51336
434.303	0.763269
437.195	1.11635
440.088	0.353448
442.981	2.28963
445.873	4.50889
448.766	0.073865
451.659	1.31478
454.551	1.61214
457.444	0.628276
460.337	5.37761
463.23	1.8185
466.122	3.06733
469.015	3.51109
471.908	2.22656
474.8	3.77745
477.693	3.15007
480.586	0.535014
483.479	2.58294
486.371	1.44605
489.264	2.22215
492.157	0.53678
495.049	1.24621
497.942	1.73577
500.835	0.125044
503.728	2.42258
506.62	3.78272
509.513	4.57536
512.406	2.84239
515.298	0.849903
518.191	3.02333
521.084	1.80501
523.976	1.46968
526.869	3.58218
529.762	1.90967
532.654	0.957329
535.547	0.651851
538.44	3.17861
541.333	2.10541
544.225	1.78062
547.118	0.25136
550.011	0.517575
552.903	2.49912
555.796	3.2246
558.689	1.25636
561.582	2.71238
564.474	1.56252
567.367	5.01836
570.26	1.48445
573.152	1.65436
576.045	3.35028
578.938	1.51982
581.83	2.08953
584.723	4.75615
587.616	3.30196
590.509	3.00666
593.401	6.05147
596.294	2.62926
599.187	1.99645
602.079	5.36451
604.972	2.13676
607.865	1.84353
610.758	3.24222
613.65	2.25804
616.543	0.797385
619.436	2.54902
622.328	2.34544
625.221	6.14199
628.114	1.46915
631.006	1.74956
633.899	2.66521
636.792	4.47059
639.684	2.7906
642.577	2.68638
645.47	1.43505
648.363	0.711907
651.255	0.227277
654.148	2.84677
657.041	2.04268
659.933	0.867867
662.826	0.496081
665.719	2.37182
668.612	1.77389
671.504	4.46872
674.397	1.43233
677.29	3.91928
680.182	1.43496
683.075	1.76616
685.968	1.28247
688.861	2.55458
691.753	0.311405
694.646	1.64437
697.539	1.68112
700.431	3.29546
703.324	0.901686
706.217	3.31556
709.109	2.62582
712.002	3.326
714.895	4.21755
717.788	2.26806
720.68	2.20731
723.573	3.72342
726.466	1.63501
729.358	1.47143
732.251	0.555665
735.144	0.403296
738.036	1.91652
740.929	2.81914
743.822	1.18613
746.715	0.089062
749.607	3.27325
752.5	1.83514
755.393	1.24975
758.285	0.677778
761.178	2.90714
764.071	2.06699
766.963	0.618386
769.856	2.17214
772.749	1.90972
775.642	1.87533
778.534	3.44206
781.427	0.628181
784.32	1.32029
787.212	3.1454
790.105	0.512003
792.998	0.666822
795.89	2.29896
798.783	1.22255
801.676	0.187355
804.569	1.58738
807.461	2.47936
810.354	3.35859
813.247	0.424098
816.139	4.58594
819.032	2.26338
821.925	2.76739
824.818	3.16787
827.71	1.07273
830.603	1.28081
833.496	2.83948
836.388	3.3671
839.281	0.416997
842.174	1.02072
845.067	2.19249
847.959	4.6646
850.852	1.39706
853.745	1.91243
856.637	2.74651
859.53	4.77869
862.423	3.72396
865.315	2.45728
868.208	1.36542
871.101	2.67827
873.994	1.33642
876.886	0.862346
879.779	0.824336
882.672	0.942564
885.564	1.17141
888.457	2.79639
891.35	3.97563
894.242	0.577587
897.135	1.68949
900.028	2.91496
902.92	4.79804
905.813	1.79222
908.706	3.80175
911.599	1.89396
914.491	0.554547
917.384	2.37894
920.277	3.56327
923.169	2.84615
926.062	0.49489
928.955	4.81954
931.847	4.20121
934.74	3.42067
937.633	3.56813
940.526	1.59603
943.418	3.95546
946.311	3.93517
949.204	3.45096
952.096	1.18169
954.989	3.41809
957.882	3.11696
960.775	3.31947
963.667	1.61667
966.56	4.69606
969.453	3.44999
972.345	3.46778
975.238	4.32593
978.131	4.13651
981.024	2.29564
983.916	2.89722
986.809	3.55706
989.702	2.44236
992.594	4.28447
995.487	4.70631
998.38	1.4586
1001.27	5.10197
1004.16	2.58738
1007.06	3.75664
1009.95	2.96382
1012.84	2.49461
1015.74	1.59215
1018.63	2.13026
1021.52	0.874887
1024.41	2.68267
1027.31	5.14529
1030.2	1.66443
1033.09	1.84576
1035.98	3.70687
1038.88	0.993861
1041.77	5.75654
1044.66	0.436132
1047.56	2.03077
1050.45	2.42845
1053.34	2.83492
1056.23	2.49765
1059.13	3.98849
1062.02	0.686413
1064.91	2.7804
1067.81	3.59912
1070.7	5.10106
1073.59	2.97399
1076.48	4.12247
1079.38	0.488978
1082.27	0.52617
1085.16	1.25584
1088.05	2.8623
1090.95	3.75509
1093.84	0.050805
1096.73	0.863055
1099.62	3.27517
1102.52	3.74762
1105.41	1.37841
1108.3	4.71594
1111.19	2.80051
1114.09	0.820688
1116.98	2.67458
1119.87	2.04443
1122.77	0.227046
1125.66	2.91148
1128.55	1.56517
1131.44	2.94654
1134.34	0.785542
1137.23	0.661123
1140.12	0.503218
1143.02	0.922277
1145.91	2.02299
1148.8	1.60924
1151.69	4.36968
1154.59	1.30734
1157.48	0.938191
1160.37	0.170953
1163.26	0.117467
1166.16	2.14778
1169.05	2.12462
1171.94	0.211447
1174.84	1.47005
1177.73	0.939023
1180.62	1.64595
1183.51	2.48026
1186.4	0.624788
1189.3	2.4342
1192.19	2.37437
1195.08	2.41939
1197.98	1.9755
1200.87	0.030301
1203.76	0.236413
1206.65	2.1317
1209.55	3.61328
1212.44	2.02531
1215.33	1.19455
1218.22	0.21906
1221.12	0.985045
1224.01	2.49712
1226.9	4.19811
1229.8	3.12134
1232.69	1.41034
1235.58	2.05839
1238.47	1.18464
1241.37	0.475746
1244.26	1.89097
1247.15	1.1099
1250.05	0.114755
1252.94	2.131
1255.83	0.95231
1258.72	3.9991
1261.62	1.86251
1264.51	2.09526
1267.4	3.66783
1270.29	2.68946
1273.19	2.52556
1276.08	3.03891
1278.97	2.30931
1281.87	3.33205
1284.76	3.28971
1287.65	3.55238
1290.54	2.08038
1293.43	4.69925
1296.33	2.66331
1299.22	3.15401
1302.11	0.006013
