Measurement: Raman, 532 nm, unoriented, Raman Data Processed
Mineral: Rammelsbergite
Rruff sample: R061021
Ideal chemistry: NiAs_2_
Locality: Schneckenstei, Vogtland, Saxony, Germany
Source: Michael Scott
Description: Tin-white metallic massive
Measured chemistry: (Ni_0.96_Co_0.03_Fe_0.01_)_Î£=1_As_2.00_ ; trace amounts of S
Raman shift (cm-1)	intensity
109.951	0
113.326	2.1824
116.701	32.1576
120.076	38.5404
123.451	128.077
126.825	95.7457
130.2	207.051
133.575	202.69
136.95	229.722
140.325	351.005
143.7	203.084
147.074	156.642
150.449	125.945
153.824	136.599
157.199	73.3585
160.574	59.9254
163.948	90.7214
167.323	28.7731
170.698	48.4795
174.073	23.9085
177.448	20.2491
180.822	16.2608
184.197	54.8956
187.572	33.4473
190.947	24.5145
194.322	58.818
197.696	71.0734
201.071	116.922
204.446	187.092
207.821	173.488
211.196	96.9266
214.571	57.9699
217.945	76.7944
221.32	93.5909
224.695	155.768
228.07	187.418
231.445	188.63
234.82	216.396
238.194	229.025
241.569	147.875
244.944	132.779
248.319	126.842
251.694	74.2984
255.068	31.9434
258.443	13.5007
261.818	5.48978
265.193	6.47223
268.568	23.1979
271.942	7.97708
275.317	7.95154
278.692	3.81869
282.067	0.675186
285.442	4.95735
288.817	7.94234
292.191	0.382874
295.566	19.5952
298.941	3.92995
302.316	0.792694
305.691	10.0105
309.065	20.1202
312.44	23.3334
315.815	25.2148
319.19	16.2151
322.565	15.4603
325.94	27.923
329.314	17.4589
332.689	7.98006
336.064	27.4798
339.439	19.8194
342.814	21.4591
346.188	17.277
349.563	12.3722
352.938	39.7604
356.313	12.0005
359.688	21.3461
363.062	20.0258
366.437	26.2788
369.812	4.36771
373.187	17.7369
376.562	24.732
379.937	22.1312
383.311	16.6437
386.686	1.17194
390.061	22.4697
393.436	20.02
396.811	8.61247
400.185	13.2296
403.56	18.2798
406.935	15.0018
410.31	14.8229
413.685	6.50496
417.06	16.2206
420.434	12.279
423.809	8.11748
427.184	2.71098
430.559	18.1947
433.934	10.8119
437.308	8.53001
440.683	17.2598
444.058	3.33357
447.433	24.582
450.808	16.7421
454.183	3.00731
457.557	6.60872
460.932	22.9116
464.307	19.4813
467.682	9.93968
471.057	23.3262
474.431	1.2644
477.806	11.3914
481.181	28.7784
484.556	23.364
487.931	23.7473
491.305	18.311
494.68	20.9666
498.055	21.7932
501.43	10.3838
504.805	13.3738
508.18	21.7404
511.554	0.403137
514.929	20.8071
518.304	24.8323
521.679	29.4838
525.054	21.7926
528.428	21.2658
531.803	20.032
535.178	5.88054
538.553	25.2083
541.928	29.9057
545.303	13.0664
548.677	6.4142
552.052	20.8527
555.427	0.570541
558.802	4.51785
562.177	31.655
565.551	4.88434
568.926	23.2236
572.301	50.81
575.676	29.1791
579.051	15.2404
582.426	19.5151
585.8	20.2719
589.175	21.9783
592.55	32.2896
595.925	28.5996
599.3	16.9722
602.674	15.4431
606.049	16.3067
609.424	12.4609
612.799	0.732605
616.174	18.897
619.548	9.55511
622.923	15.9956
626.298	29.7506
629.673	28.4028
633.048	18.3642
636.423	13.3807
639.797	29.7397
643.172	28.631
646.547	12.0836
649.922	21.9953
653.297	17.3815
656.671	25.0372
660.046	18.9646
663.421	11.9691
666.796	30.4332
670.171	66.758
673.545	3.95062
676.92	29.322
680.295	13.0397
683.67	0.607697
687.045	18.3879
690.42	18.0051
693.794	27.2267
697.169	23.744
700.544	25.8326
703.919	6.21513
707.294	13.8856
710.668	0.569466
714.043	8.2928
717.418	33.9783
720.793	26.7629
724.168	4.51411
727.543	39.144
730.917	14.544
734.292	37.116
737.667	27.1114
741.042	6.04305
744.417	19.3392
747.791	23.7458
751.166	4.21749
754.541	31.1118
757.916	13.5952
761.291	31.8114
764.665	45.24
768.04	29.1904
771.415	0.50573
774.79	16.1582
778.165	13.6903
781.54	16.6167
784.914	12.1841
788.289	5.061
791.664	16.5349
795.039	29.1502
798.414	15.1728
801.788	15.4717
805.163	12.4073
808.538	19.8659
811.913	15.3679
815.288	10.1975
818.663	10.8801
822.037	7.78616
825.412	10.0139
828.787	1.38119
832.162	25.0143
835.537	22.083
838.911	5.83112
842.286	18.1326
845.661	9.90819
849.036	3.33089
852.411	24.8761
855.785	2.6737
859.16	22.4492
862.535	29.469
865.91	9.65805
869.285	27.8599
872.66	20.5507
876.034	28.4925
879.409	12.3174
882.784	24.9466
886.159	5.01768
889.534	33.7603
892.908	5.28485
896.283	7.60325
899.658	40.3925
903.033	10.1687
906.408	32.7371
909.783	27.1986
913.157	15.9651
916.532	30.941
919.907	16.4516
923.282	34.3699
926.657	24.5076
930.031	16.5115
933.406	11.2638
936.781	33.9539
940.156	39.1281
943.531	20.3404
946.905	25.9816
950.28	29.9927
953.655	5.12244
957.03	9.82217
960.405	7.21968
963.78	20.452
967.154	19.4661
970.529	7.51665
973.904	11.2642
977.279	22.0121
980.654	20.3175
984.029	23.3444
987.403	15.1796
990.778	20.3134
994.153	10.8131
997.528	13.3217
1000.9	14.6618
1004.28	30.3811
1007.65	19.1996
1011.03	9.25482
1014.4	26.7593
1017.78	18.9517
1021.15	10.2057
1024.53	14.4098
1027.9	23.8728
1031.28	5.21561
1034.65	21.2101
1038.03	41.7829
1041.4	29.1442
1044.78	33.3929
1048.15	14.3377
1051.53	17.0733
1054.9	28.502
1058.27	38.2409
1061.65	16.204
1065.02	27.6852
1068.4	18.5794
1071.77	16.9251
1075.15	32.7537
1078.52	18.8276
1081.9	22.8598
1085.27	25.1581
1088.65	27.4025
1092.02	25.3529
1095.4	14.9332
1098.77	44.9638
1102.15	27.4156
1105.52	28.2242
1108.9	1.33519
1112.27	6.50404
1115.65	4.94844
1119.02	40.6453
1122.4	18.6592
1125.77	38.0863
1129.15	25.1766
1132.52	8.78719
1135.89	5.69615
1139.27	25.4174
1142.64	25.7425
1146.02	33.6182
1149.39	12.7077
1152.77	13.6861
1156.14	19.6483
1159.52	4.89037
1162.89	2.37978
1166.27	29.7154
1169.64	16.0521
1173.02	11.4957
1176.39	16.546
1179.77	34.4595
1183.14	41.1287
1186.52	3.90702
1189.89	8.54705
1193.27	10.2609
1196.64	28.4392
1200.02	27.9481
1203.39	16.1966
1206.77	20.3635
1210.14	18.117
1213.52	27.742
1216.89	23.7617
1220.27	18.4196
1223.64	14.3712
1227.02	12.8655
1230.39	35.7737
1233.77	9.98006
1237.14	14.2557
1240.51	10.0752
1243.89	16.9473
1247.26	29.4729
1250.64	1.75048
1254.01	17.8844
1257.39	33.7948
1260.76	17.0768
1264.14	24.3161
1267.51	18.6731
1270.89	13.4354
1274.26	15.5708
1277.64	15.0711
1281.01	40.6892
1284.39	26.473
1287.76	25.7625
1291.14	20.5697
1294.51	8.53116
1297.89	0.535873
