Measurement: Raman, 785 nm, unoriented, Raman Data Processed
Mineral: Rammelsbergite
Rruff sample: R061021
Ideal chemistry: NiAs_2_
Locality: Schneckenstei, Vogtland, Saxony, Germany
Source: Michael Scott
Description: Tin-white metallic massive
Measured chemistry: (Ni_0.96_Co_0.03_Fe_0.01_)_Î£=1_As_2.00_ ; trace amounts of S
Raman shift (cm-1)	intensity
89.2263	0
92.6011	11.0845
95.9759	30.3414
99.3507	42.939
102.725	22.1518
106.1	10.3871
109.475	10.9748
112.85	17.4615
116.225	178.445
119.6	205.074
122.974	177.87
126.349	428.813
129.724	1122.73
133.099	1860.97
136.474	1220.59
139.849	782.839
143.223	761.399
146.598	1040.53
149.973	1290.01
153.348	1104.12
156.722	815.529
160.097	677.029
163.472	656.154
166.847	497.022
170.222	377.838
173.597	318.777
176.971	229.441
180.346	179.186
183.721	133.46
187.096	116.392
190.471	95.619
193.845	58.5577
197.22	72.4914
200.595	51.8582
203.97	47.125
207.345	42.1717
210.72	19.1896
214.094	15.1062
217.469	6.15008
220.844	10.7763
224.219	22.0837
227.594	28.4411
230.969	51.323
234.343	94.5511
237.718	134.714
241.093	94.5162
244.468	33.9072
247.843	11.9733
251.217	5.31761
254.592	7.15666
257.967	3.40888
261.342	3.28664
264.717	11.2327
268.091	13.4721
271.466	7.11027
274.841	10.2341
278.216	4.56513
281.591	9.03465
284.966	5.90416
288.34	1.69942
291.715	4.22655
295.09	11.8877
298.465	29.6474
301.84	2.6714
305.214	26.4613
308.589	21.1242
311.964	26.9454
315.339	19.5369
318.714	14.8585
322.089	4.75185
325.463	8.5433
328.838	21.5484
332.213	25.4673
335.588	25.6162
338.963	27.275
342.337	15.4008
345.712	12.5757
349.087	14.2343
352.462	7.38005
355.837	13.771
359.211	18.0173
362.586	5.80061
365.961	12.093
369.336	6.68233
372.711	23.7048
376.086	6.1994
379.46	16.2067
382.835	8.18996
386.21	9.33144
389.585	11.0806
392.96	9.34755
396.334	1.92326
399.709	11.2024
403.084	2.14546
406.459	10.8081
409.834	6.33312
413.209	15.5048
416.583	16.793
419.958	6.2661
423.333	7.35924
426.708	8.5928
430.083	10.0851
433.457	5.8856
436.832	4.06723
440.207	1.39282
443.582	1.11662
446.957	7.0251
450.331	17.3905
453.706	6.07941
457.081	10.6275
460.456	10.7968
463.831	14.1148
467.205	1.9731
470.58	10.4905
473.955	4.77669
477.33	11.3812
480.705	12.958
484.08	5.54955
487.454	10.1312
490.829	14.0094
494.204	24.6441
497.579	9.50795
500.954	18.0666
504.329	6.63812
507.703	8.90498
511.078	21.6528
514.453	18.3387
517.828	7.87894
521.202	17.4595
524.577	6.73196
527.952	9.76851
531.327	7.05066
534.702	0.294403
538.077	8.60776
541.451	22.0605
544.826	7.49086
548.201	2.32709
551.576	13.1259
554.951	9.70824
558.326	13.0457
561.7	8.41162
565.075	2.71048
568.45	0.685791
571.825	15.9158
575.2	0.983215
578.574	5.52947
581.949	4.05844
585.324	15.8296
588.699	24.8955
592.074	4.23619
595.448	6.57527
598.823	7.89986
602.198	17.2302
605.573	13.4914
608.948	6.0459
612.322	10.9011
615.697	16.5157
619.072	10.6707
622.447	8.51948
625.822	11.0702
629.197	6.13267
632.571	8.14984
635.946	6.3907
639.321	11.5855
642.696	2.60762
646.071	9.71367
649.446	8.16461
652.82	17.9093
656.195	11.3899
659.57	8.71742
662.945	4.14719
666.32	18.6969
669.694	5.38495
673.069	19.0656
676.444	14.0511
679.819	17.2076
683.194	7.55251
686.568	14.8668
689.943	9.94975
693.318	7.11591
696.693	6.10298
700.068	12.0348
703.442	6.66602
706.817	16.8403
710.192	13.9227
713.567	11.595
716.942	6.50363
720.317	16.9207
723.691	3.0457
727.066	18.0845
730.441	7.97858
733.816	7.12161
737.191	17.887
740.566	9.84924
743.94	7.24315
747.315	13.0855
750.69	16.5701
754.065	11.608
757.44	22.6824
760.814	12.5327
764.189	10.7749
767.564	2.82472
770.939	15.7833
774.314	22.5679
777.688	16.2519
781.063	5.78767
784.438	15.7714
787.813	8.34721
791.188	14.1083
794.562	17.4043
797.937	5.98775
801.312	0.126678
804.687	3.97482
808.062	7.96094
811.437	22.3289
814.811	16.1842
818.186	17.1894
821.561	21.74
824.936	20.3722
828.311	21.0843
831.686	8.18367
835.06	5.68034
838.435	5.11169
841.81	10.8406
845.185	1.85913
848.56	14.1518
851.934	11.1544
855.309	13.3101
858.684	11.6786
862.059	3.53082
865.434	6.63431
868.808	12.9866
872.183	2.14082
875.558	0.918869
878.933	6.3786
882.308	12.3607
885.683	3.45906
889.057	14.5053
892.432	7.22896
895.807	12.3501
899.182	1.25838
902.557	1.42429
905.931	1.57083
909.306	9.81265
912.681	9.26675
916.056	9.64772
919.431	11.3306
922.806	4.82632
926.18	16.5868
929.555	7.58334
932.93	9.26155
936.305	18.4583
939.68	5.28896
943.054	8.53296
946.429	5.043
949.804	9.05432
953.179	1.03331
956.554	8.15391
959.928	16.0305
963.303	7.85312
966.678	10.8424
970.053	12.4258
973.428	10.6189
976.803	17.2463
980.177	0.572983
983.552	25.3511
986.927	11.4742
990.302	2.07715
993.677	5.72873
997.051	14.6332
1000.43	7.59598
1003.8	8.5184
1007.18	16.6995
1010.55	6.90825
1013.92	12.0064
1017.3	12.2706
1020.67	15.1349
1024.05	2.56061
1027.42	5.37529
1030.8	25.6198
1034.17	15.5007
1037.55	13.3732
1040.92	23.0516
1044.3	11.4455
1047.67	19.1439
1051.05	18.0401
1054.42	36.5746
1057.8	20.1475
1061.17	18.9748
1064.55	12.7778
1067.92	13.5699
1071.3	11.2074
1074.67	19.4254
1078.05	14.4438
1081.42	0.008743
1084.8	14.9759
1088.17	2.87897
1091.55	6.88867
1094.92	3.63246
1098.3	11.7961
1101.67	1.64247
1105.05	12.514
1108.42	17.7743
1111.8	15.8656
1115.17	3.26771
1118.55	16.0194
1121.92	15.2303
1125.29	14.0546
1128.67	19.778
1132.04	11.7088
1135.42	14.9541
1138.79	4.08199
1142.17	8.16124
1145.54	15.5474
1148.92	13.0984
1152.29	18.8332
1155.67	24.9746
1159.04	9.72481
1162.42	16.7749
1165.79	7.66162
1169.17	21.763
1172.54	11.8879
1175.92	25.4723
1179.29	13.1022
1182.67	10.6045
1186.04	12.3022
1189.42	17.7052
1192.79	19.3416
1196.16	16.6892
1199.54	10.9773
1202.91	2.26993
1206.29	2.16188
1209.66	8.31393
1213.04	8.00365
1216.41	24.2246
1219.79	11.1982
1223.16	18.3806
1226.54	11.3872
1229.91	29.0418
1233.29	20.9213
1236.66	3.89818
1240.04	6.00172
1243.41	11.1874
1246.79	13.6042
1250.16	9.9798
1253.54	8.92029
1256.91	11.4153
1260.29	9.81564
1263.66	0
