Measurement: Raman, 532 nm, unoriented, Raman Data Processed
Mineral: Rathite
Rruff sample: R070691
Ideal chemistry: Ag^1+^_2_Pb^2+^_12-x_Tl^1+^_x/2_As^3+^_18+x/2_S^2-^_40_
Locality: Lengenbach Quarry, near Imfeld, Binnental, Valais, Switzerland
Source: James Shigley
Description: Lead-gray striated metallic crystals associated with dolomite. Known as rathite I.
Raman shift (cm-1)	intensity
142.138	0
145.513	36.027
148.887	16.5807
152.262	64.0447
155.637	84.8195
159.012	19.9017
162.387	94.2818
165.762	38.1154
169.136	43.7309
172.511	60.7766
175.886	15.0022
179.261	14.9094
182.636	27.2342
186.01	13.6246
189.385	21.9705
192.76	35.7947
196.135	44.882
199.51	23.637
202.885	6.4931
206.259	56.4631
209.634	57.8488
213.009	34.3339
216.384	30.4819
219.759	33.9293
223.133	42.199
226.508	42.9911
229.883	44.4994
233.258	35.3935
236.633	64.4365
240.007	99.7479
243.382	49.7243
246.757	54.0096
250.132	55.63
253.507	54.1901
256.882	71.733
260.256	57.2391
263.631	63.4076
267.006	15.2438
270.381	77.7217
273.756	56.2393
277.13	17.3672
280.505	99.9079
283.88	73.531
287.255	48.7565
290.63	55.8506
294.005	71.4257
297.379	22.1192
300.754	44.7045
304.129	37.4481
307.504	67.8619
310.879	10.5768
314.253	8.11209
317.628	22.9074
321.003	23.1123
324.378	45.6979
327.753	40.3624
331.127	38.2663
334.502	12.9835
337.877	32.0133
341.252	25.7498
344.627	23.6014
348.002	57.1291
351.376	78.178
354.751	86.4108
358.126	74.2117
361.501	83.9613
364.876	50.9403
368.25	49.4831
371.625	110.596
375	29.3459
378.375	37.6407
381.75	24.0799
385.125	12.5038
388.499	11.5746
391.874	27.4884
395.249	10.2708
398.624	12.4622
401.999	8.45229
405.373	72.1564
408.748	24.4471
412.123	44.9215
415.498	32.2074
418.873	52.279
422.247	30.6709
425.622	28.8322
428.997	15.1741
432.372	9.41148
435.747	45.135
439.122	39.6523
442.496	17.8495
445.871	37.7029
449.246	45.1702
452.621	44.9576
455.996	49.0225
459.37	6.41069
462.745	25.5954
466.12	36.227
469.495	29.273
472.87	55.5988
476.245	57.7269
479.619	26.4449
482.994	4.98813
486.369	33.1935
489.744	34.484
493.119	10.0374
496.493	8.5045
499.868	38.8981
503.243	63.5107
506.618	24.0607
509.993	26.3252
513.367	37.1294
516.742	21.4311
520.117	41.785
523.492	44.204
526.867	35.0785
530.241	17.9769
533.616	44.0244
536.991	31.3729
540.366	30.2688
543.741	17.1092
547.116	15.4773
550.49	37.8058
553.865	5.31255
557.24	44.3835
560.615	0.604378
563.99	18.2305
567.365	27.3296
570.739	45.7546
574.114	54.1815
577.489	26.0403
580.864	13.0057
584.239	35.0341
587.613	47.5589
590.988	12.7844
594.363	18.4513
597.738	57.6236
601.113	40.8739
604.487	31.0455
607.862	33.7532
611.237	45.2699
614.612	43.9373
617.987	29.3211
621.361	45.926
624.736	10.6087
628.111	56.9854
631.486	23.854
634.861	38.44
638.236	56.1113
641.61	15.9308
644.985	35.7956
648.36	9.91
651.735	14.2236
655.11	31.5856
658.485	25.7794
661.859	15.5981
665.234	34.9377
668.609	22.2112
671.984	8.88202
675.359	10.1062
678.733	43.498
682.108	41.2951
685.483	15.1657
688.858	30.1099
692.233	22.1213
695.607	47.7416
698.982	23.6072
702.357	36.9763
705.732	58.5213
709.107	17.7751
712.481	32.7081
715.856	14.6883
719.231	22.7665
722.606	24.2285
725.981	28.3992
729.356	39.9931
732.73	19.2018
736.105	42.4892
739.48	39.129
742.855	20.6439
746.23	35.5954
749.604	37.8342
752.979	17.0425
756.354	54.7105
759.729	30.8102
763.104	32.2565
766.479	9.86607
769.853	29.7674
773.228	18.1718
776.603	32.0383
779.978	20.9244
783.353	29.442
786.727	36.111
790.102	37.3901
793.477	16.8116
796.852	47.9338
800.227	63.9916
803.601	27.7676
806.976	35.0866
810.351	43.9444
813.726	51.498
817.101	28.207
820.476	26.1566
823.85	25.9096
827.225	32.3952
830.6	26.4658
833.975	6.85014
837.35	31.9967
840.724	30.9773
844.099	18.3702
847.474	24.1749
850.849	54.8653
854.224	19.5319
857.598	30.9481
860.973	38.2141
864.348	9.58833
867.723	9.45581
871.098	9.44619
874.473	44.619
877.847	39.0104
881.222	33.0002
884.597	21.446
887.972	25.92
891.347	31.995
894.721	13.9916
898.096	21.2856
901.471	4.3309
904.846	26.1424
908.221	9.7715
911.596	13.2147
914.97	8.74949
918.345	3.82234
921.72	24.9309
925.095	22.0511
928.47	17.8914
931.844	14.5619
935.219	1.56892
938.594	29.6628
941.969	17.4547
945.344	23.7942
948.718	14.5656
952.093	29.3777
955.468	11.6601
958.843	16.6092
962.218	43.9556
965.593	41.5331
968.967	31.0683
972.342	14.6271
975.717	36.0872
979.092	36.8599
982.467	11.2704
985.841	33.7031
989.216	3.6418
992.591	18.5123
995.966	0.758743
999.341	22.6343
1002.72	22.2727
1006.09	19.6511
1009.47	52.6983
1012.84	15.3658
1016.22	35.1338
1019.59	0.816692
1022.96	39.4375
1026.34	30.9901
1029.71	24.7959
1033.09	48.7202
1036.46	46.1381
1039.84	14.0937
1043.21	28.096
1046.59	29.1438
1049.96	38.9577
1053.34	40.7975
1056.71	2.52444
1060.09	42.7511
1063.46	25.7065
1066.84	23.3771
1070.21	24.3351
1073.59	36.614
1076.96	41.7456
1080.34	33.1759
1083.71	30.0782
1087.09	0.287491
1090.46	35.3399
1093.84	21.5409
1097.21	17.806
1100.59	11.9981
1103.96	33.1449
1107.34	34.2918
1110.71	46.2384
1114.08	0.174458
1117.46	11.9523
1120.83	22.3367
1124.21	43.9009
1127.58	41.7764
1130.96	28.1646
1134.33	23.2886
1137.71	50.7882
1141.08	2.90083
1144.46	27.709
1147.83	7.69349
1151.21	59.1041
1154.58	31.3049
1157.96	4.56431
1161.33	18.862
1164.71	20.9947
1168.08	18.6616
1171.46	8.47979
1174.83	34.643
1178.21	26.6998
1181.58	52.2706
1184.96	41.8971
1188.33	37.1001
1191.7	23.0068
1195.08	35.6678
1198.45	46.3867
1201.83	22.4389
1205.2	21.2985
1208.58	35.4338
1211.95	4.42214
1215.33	36.7456
1218.7	10.3095
1222.08	2.7682
1225.45	13.3043
1228.83	4.95391
1232.2	9.95429
1235.58	32.8622
1238.95	2.95968
1242.33	14.0841
1245.7	25.4162
1249.08	32.1551
1252.45	36.1501
1255.83	30.3759
1259.2	18.2374
1262.58	20.2276
1265.95	36.8539
1269.33	19.8291
1272.7	8.59655
1276.08	20.2376
1279.45	43.9571
1282.83	15.6621
1286.2	21.7287
1289.58	26.5968
1292.95	30.247
1296.32	42.1151
1299.7	0
