Measurement: Raman, 532 nm, unoriented, Raman Data Processed
Mineral: Realgar
Rruff sample: R100026
Ideal chemistry: AsS
Locality: Palomo mine, Castrovirreyna Province, Huancavelica Department, Peru
Source: Rob Woodside
Description: Red prismatic crystals
Raman shift (cm-1)	intensity
164.256	0
167.149	6.32031
170.041	15.9279
172.934	21.4382
175.827	27.4733
178.72	31.7671
181.612	52.6738
184.505	62.5622
187.398	60.0951
190.29	56.7374
193.183	46.0188
196.076	48.2977
198.968	56.5725
201.861	58.1119
204.754	52.1108
207.647	51.4565
210.539	65.9886
213.432	84.1809
216.325	115.456
219.217	132.09
222.11	150.926
225.003	158.122
227.895	167.059
230.788	179.895
233.681	179.314
236.573	162.972
239.466	129.08
242.359	99.2533
245.252	67.7815
248.144	54.0486
251.037	28.0652
253.93	14.4485
256.822	12.0065
259.715	12.0248
262.608	6.48157
265.5	15.2396
268.393	36.6239
271.286	77.5055
274.179	70.7704
277.071	21.6439
279.964	6.58383
282.857	9.65466
285.75	4.57913
288.642	0.030701
291.535	2.13055
294.428	12.8311
297.32	22.7794
300.213	29.0661
303.106	42.2203
305.998	54.5658
308.891	62.9554
311.784	69.6304
314.676	82.7767
317.569	94.2401
320.462	110.469
323.355	124.125
326.247	135.384
329.14	150.182
332.033	157.739
334.925	167.06
337.818	184.59
340.711	183.377
343.603	189.333
346.496	189.693
349.389	188.533
352.281	183.857
355.174	177.214
358.067	165.549
360.96	162.097
363.852	145.858
366.745	125.138
369.638	109.021
372.53	101.35
375.423	90.2034
378.316	80.4252
381.209	69.3596
384.101	55.9265
386.994	42.4293
389.887	31.7752
392.779	21.0773
395.672	13.4565
398.565	7.14728
401.457	1.30728
404.35	0.601654
407.243	3.06753
410.135	1.80978
413.028	3.70248
415.921	0.375336
418.814	4.49747
421.706	3.3418
424.599	0.320679
427.492	2.59311
430.384	3.08203
433.277	2.33713
436.17	6.22485
439.062	6.01303
441.955	0.255829
444.848	2.86056
447.741	4.63602
450.633	1.11215
453.526	5.02777
456.419	3.7616
459.311	7.6929
462.204	5.86581
465.097	8.58914
467.99	6.24515
470.882	8.03781
473.775	9.78088
476.668	7.83057
479.56	9.26144
482.453	10.4566
485.346	9.06601
488.238	8.46109
491.131	4.78528
494.024	1.35812
496.916	5.68961
499.809	7.77368
502.702	8.00589
505.595	4.69153
508.487	4.89075
511.38	3.83972
514.273	6.34314
517.165	1.30188
520.058	4.78436
522.951	3.31885
525.844	1.64038
528.736	6.31384
531.629	0.439819
534.522	4.31647
537.414	4.1922
540.307	3.48474
543.2	5.98212
546.092	4.05017
548.985	4.45032
551.878	8.17706
554.771	4.80817
557.663	4.40021
560.556	4.74793
563.449	5.62982
566.341	2.85138
569.234	4.65979
572.127	9.24402
575.019	3.38507
577.912	0.33252
580.805	1.88702
583.698	4.89636
586.59	3.51343
589.483	4.82471
592.376	3.57806
595.268	1.17493
598.161	2.66547
601.054	0.059387
603.946	2.00989
606.839	0.624512
609.732	3.78668
612.625	3.68292
615.517	2.77386
618.41	0.17157
621.303	2.58624
624.195	0.223328
627.088	4.19147
629.981	1.29578
632.873	2.8067
635.766	2.82574
638.659	3.44946
641.552	0.362915
644.444	2.05072
647.337	1.82477
650.23	7.40002
653.122	6.13696
656.015	5.80487
658.908	5.68848
661.8	0.805786
664.693	4.52655
667.586	4.84943
670.479	8.39459
673.371	5.72656
676.264	6.36108
679.157	11.9279
682.049	9.00146
684.942	8.40582
687.835	6.56604
690.727	13.2783
693.62	4.15179
696.513	5.89612
699.405	7.40637
702.298	4.91321
705.191	4.58313
708.084	3.66827
710.976	6.71643
713.869	9.16583
716.762	8.73895
719.654	2.11408
722.547	3.67627
725.44	1.37024
728.332	5.53491
731.225	2.46905
734.118	8.7279
737.011	6.19965
739.903	4.47992
742.796	4.49976
745.689	4.91235
748.581	6.06513
751.474	4.52161
754.367	3.1723
757.26	3.9859
760.152	3.82013
763.045	7.00067
765.938	2.95557
768.83	0.56012
771.723	2.17352
774.616	10.1279
777.508	5.16479
780.401	4.4483
783.294	1.61566
786.187	0.544434
789.079	5.72186
791.972	2.3678
794.865	4.26337
797.757	1.42004
800.65	6.53436
803.543	0.538696
806.435	4.85992
809.328	3.38025
812.221	3.625
815.114	3.06165
818.006	2.45758
820.899	4.66113
823.792	1.58826
826.684	2.66065
829.577	1.36493
832.47	4.20624
835.362	3.17633
838.255	5.04663
841.148	5.28088
844.04	3.78839
846.933	3.19232
849.826	5.31171
852.719	4.58307
855.611	3.91119
858.504	4.76904
861.397	0.944702
864.289	3.93347
867.182	3.70264
870.075	2.61664
872.967	4.65222
875.86	7.73096
878.753	5.79492
881.646	3.14002
884.538	4.97711
887.431	1.68835
890.324	6.36462
893.216	1.46356
896.109	4.23328
899.002	2.90399
901.894	4.29871
904.787	5.66217
907.68	3.09558
910.573	2.81683
913.465	4.11859
916.358	3.64648
919.251	8.54303
922.143	1.55591
925.036	6.64569
927.929	6.04157
930.822	3.94635
933.714	2.34955
936.607	1.36304
939.5	5.45221
942.392	1.13025
945.285	5.03894
948.178	3.77142
951.07	3.31879
953.963	3.2287
956.856	3.05975
959.749	4.80279
962.641	0.667603
965.534	1.68408
968.427	3.59271
971.319	0.181396
974.212	3.94556
977.105	4.95972
979.997	5.95276
982.89	3.91553
985.783	3.10559
988.676	5.97424
991.568	11.4125
994.461	4.84912
997.354	1.30987
1000.25	3.56342
1003.14	1.17194
1006.03	4.05353
1008.92	6.2431
1011.82	5.55328
1014.71	3.65729
1017.6	3.62952
1020.5	3.18579
1023.39	3.58307
1026.28	4.02283
1029.17	3.95135
1032.07	3.62543
1034.96	7.40729
1037.85	2.24701
1040.74	1.99121
1043.64	3.48846
1046.53	3.02271
1049.42	6.97375
1052.32	6.01227
1055.21	4.70917
1058.1	1.2854
1060.99	1.0984
1063.89	3.82806
1066.78	1.20557
1069.67	2.90027
1072.56	2.6178
1075.46	4.44421
1078.35	4.35303
1081.24	6.52924
1084.13	0.28479
1087.03	0.541016
1089.92	2.87811
1092.81	3.49506
1095.7	6.62799
1098.6	3.37415
1101.49	1.86749
1104.38	2.53864
1107.28	6.48547
1110.17	0.071411
1113.06	2.86224
1115.95	3.92047
1118.85	2.23642
1121.74	0.964111
1124.63	2.59161
1127.53	3.2851
1130.42	1.38946
1133.31	3.1048
1136.2	2.5509
1139.1	7.35614
1141.99	0.061829
1144.88	1.44287
1147.77	2.33801
1150.67	4.28473
1153.56	6.74243
1156.45	5.98932
1159.35	2.96155
1162.24	3.57648
1165.13	3.69092
1168.02	3.33484
1170.92	7.55127
1173.81	3.13751
1176.7	6.23029
1179.59	1.34644
1182.49	4.44659
1185.38	1.95312
1188.27	2.68793
1191.16	1.14246
1194.06	0.652283
1196.95	2.23901
1199.84	3.50641
1202.73	4.92145
1205.63	4.66821
1208.52	5.15161
1211.41	6.26239
1214.31	5.24475
1217.2	5.58954
1220.09	1.66264
1222.98	4.43066
1225.88	5.83154
1228.77	2.21857
1231.66	6.11401
1234.56	3.85431
1237.45	5.41785
1240.34	1.9082
1243.23	4.14954
1246.13	2.47009
1249.02	5.80005
1251.91	6.83002
1254.8	6.73236
1257.7	7.42633
1260.59	9.69074
1263.48	6.87347
1266.38	3.32184
1269.27	7.12036
1272.16	2.35644
1275.05	8.29822
1277.95	1.68408
1280.84	4.38141
1283.73	5.63086
1286.62	0.429443
1289.52	1.49957
1292.41	3.27972
1295.3	7.98377
1298.19	1.0979
1301.09	2.30493
