Measurement: Raman, 532 nm, unoriented, Raman Data Processed
Mineral: Realgar
Rruff sample: R060106
Ideal chemistry: AsS
Locality: Humboldt County, Nevada, USA
Source: University of Arizona Mineral Museum
Description: Red incrustation with some prismatic crystals
Measured chemistry: As_1.06_S_0.94_
Raman shift (cm-1)	intensity
140.886	0
144.261	0.835194
147.636	2.31501
151.011	2.15734
154.385	1.88548
157.76	0.107302
161.135	0.103211
164.51	0.347111
167.885	0.545538
171.259	1.46263
174.634	3.04939
178.009	5.86322
181.384	5.06344
184.759	5.98915
188.133	6.05021
191.508	11.0565
194.883	6.99061
198.258	2.7177
201.633	3.96806
205.008	3.23826
208.382	2.83017
211.757	5.16669
215.132	7.3852
218.507	11.3239
221.882	10.1379
225.256	8.18505
228.631	9.01992
232.006	7.93969
235.381	9.18806
238.756	6.30308
242.131	4.86203
245.505	0.502324
248.88	1.11437
252.255	1.2575
255.63	0.921956
259.005	2.44702
262.38	0.215638
265.754	1.22598
269.129	2.19766
272.504	2.63759
275.879	1.33677
279.254	0.899828
282.628	2.72162
286.003	0.817538
289.378	0.744165
292.753	1.04515
296.128	1.01674
299.503	1.87818
302.877	2.79315
306.252	1.95398
309.627	3.07741
313.002	3.76228
316.377	5.57402
319.752	5.33736
323.126	6.5278
326.501	8.48758
329.876	6.23797
333.251	9.14101
336.626	10.4566
340	12.4954
343.375	11.818
346.75	13.5987
350.125	16.4558
353.5	23.0522
356.875	11.6546
360.249	8.61678
363.624	7.26074
366.999	7.79193
370.374	5.90289
373.749	5.77963
377.123	5.43101
380.498	2.26902
383.873	2.94352
387.248	2.71951
390.623	0.898312
393.998	0.649739
397.372	1.7771
400.747	0.10386
404.122	0.344993
407.497	0.035581
410.872	2.19448
414.247	0.503316
417.621	0.247663
420.996	0.880494
424.371	0.617726
427.746	0.352182
431.121	0.049924
434.495	1.18606
437.87	1.23637
441.245	1.56122
444.62	0.452179
447.995	1.98562
451.37	0.681373
454.744	1.96079
458.119	0.938407
461.494	0.790141
464.869	1.46286
468.244	0.205883
471.618	1.3525
474.993	2.30029
478.368	2.91178
481.743	1.00908
485.118	1.62455
488.493	1.55275
491.867	1.28483
495.242	1.36114
498.617	0.281561
501.992	1.15281
505.367	1.76283
508.741	1.30349
512.116	0.815676
515.491	1.68802
518.866	1.32822
522.241	2.52214
525.616	1.50714
528.99	2.26454
532.365	0.930866
535.74	3.45936
539.115	1.85461
542.49	1.46605
545.865	1.43396
549.239	0.747145
552.614	2.21828
555.989	1.00161
559.364	0.708765
562.739	1.95212
566.114	1.33364
569.488	1.82929
572.863	2.5787
576.238	1.23944
579.613	0.219962
582.987	1.32511
586.362	0.861978
589.737	1.33814
593.112	2.65703
596.487	0.804605
599.862	1.15232
603.236	0.009538
606.611	0.650115
609.986	0.029137
613.361	1.78339
616.736	0.736139
620.111	0.816802
623.485	1.80773
626.86	1.09609
630.235	0.878003
633.61	1.7922
636.985	2.27582
640.36	0.958823
643.734	1.7397
647.109	2.16045
650.484	0.631698
653.859	1.31962
657.234	1.95698
660.609	0.452834
663.983	0.941551
667.358	1.45574
670.733	0.449872
674.108	0.427632
677.482	2.01617
680.857	0.319254
684.232	1.25341
687.607	1.73369
690.982	0.742263
694.357	0.166944
697.731	1.10487
701.106	1.77968
704.481	0.740781
707.856	0.716296
711.231	1.86225
714.606	2.48408
717.98	0.389945
721.355	1.34598
724.73	1.79243
728.105	2.02782
731.48	1.41244
734.855	2.47489
738.229	0.774836
741.604	1.47242
744.979	2.62539
748.354	0.473407
751.729	0.584518
755.103	0.012491
758.478	1.23184
761.853	2.05703
765.228	2.23323
768.603	1.48517
771.977	0.599648
775.352	0.816837
778.727	0.018137
782.102	0.641556
785.477	1.61874
788.852	1.10422
792.226	0.417024
795.601	0.950843
798.976	1.58867
802.351	1.78878
805.726	1.20476
809.101	0.870427
812.475	0.64773
815.85	0.413422
819.225	1.0343
822.6	1.75941
825.975	0.949235
829.35	1.22252
832.724	0.149827
836.099	0.514929
839.474	0.896565
842.849	1.73691
846.224	0.745993
849.598	0.554586
852.973	1.33353
856.348	0.603271
859.723	0.112916
863.098	1.71028
866.472	1.28548
869.847	2.59022
873.222	0.283495
876.597	1.30906
879.972	1.67482
883.347	2.17185
886.721	1.83062
890.096	1.05991
893.471	2.29944
896.846	0.661571
900.221	1.59482
903.596	1.0146
906.97	1.40026
910.345	1.25592
913.72	3.13361
917.095	0.971969
920.47	2.65084
923.845	1.10349
927.219	1.52687
930.594	0.224025
933.969	0.794227
937.344	0.470912
940.719	1.36297
944.093	0.129707
947.468	1.19606
950.843	1.25775
954.218	2.13104
957.593	1.41347
960.967	1.35819
964.342	1.09587
967.717	0.365541
971.092	0.344069
974.467	1.27332
977.842	1.20279
981.216	0.139354
984.591	2.56363
987.966	1.1708
991.341	2.06004
994.716	1.35099
998.091	1.01147
1001.47	1.62114
1004.84	1.06941
1008.22	1.82342
1011.59	1.41733
1014.97	0.569523
1018.34	1.3448
1021.71	0.333822
1025.09	1.50484
1028.46	1.14844
1031.84	0.954648
1035.21	0.666933
1038.59	0.90387
1041.96	1.3244
1045.34	1.49072
1048.71	0.750834
1052.09	1.3651
1055.46	0.755207
1058.84	0.871781
1062.21	0.708304
1065.59	1.76984
1068.96	0.975692
1072.34	0.818662
1075.71	0.040184
1079.09	0.699962
1082.46	0.358622
1085.84	1.12885
1089.21	0.74881
1092.59	1.88151
1095.96	0.004386
1099.34	0.148184
1102.71	3.01748
1106.09	0.746541
1109.46	1.78083
1112.83	1.43633
1116.21	0.177215
1119.58	2.09055
1122.96	1.06893
1126.33	0.269822
1129.71	1.00741
1133.08	1.39695
1136.46	0.783332
1139.83	1.22171
1143.21	0.454086
1146.58	2.17847
1149.96	0.168786
1153.33	1.44515
1156.71	0.484674
1160.08	1.00089
1163.46	1.4873
1166.83	0.497502
1170.21	1.9005
1173.58	0.682837
1176.96	1.06343
1180.33	1.58268
1183.71	0.657419
1187.08	0.591703
1190.45	1.16404
1193.83	1.03238
1197.2	2.16274
1200.58	1.32538
1203.95	1.62112
1207.33	1.0972
1210.7	1.6082
1214.08	0.588374
1217.45	2.02835
1220.83	2.41108
1224.2	1.80282
1227.58	2.2243
1230.95	1.94649
1234.33	1.60581
1237.7	2.08169
1241.08	0.994474
1244.45	1.17037
1247.83	0.693937
1251.2	2.18982
1254.58	2.41254
1257.95	1.94497
1261.33	2.89402
1264.7	2.34186
1268.08	2.60662
1271.45	0.018987
1274.83	1.11514
1278.2	1.1035
1281.58	0.806622
1284.95	1.69037
1288.33	1.93884
1291.7	2.13428
1295.08	0.67926
1298.45	0.101983
1301.82	0
