Measurement: Raman, 780 nm, unoriented, Raman Data Processed
Mineral: Remondite-(Ce)
Rruff sample: R120060
Ideal chemistry: Na_3_(Ce^3+^,Ca,Na)_3_(CO_3_)_5_
Locality: Mont Saint-Hilaire, Rouville RCM, Montérégie, Québec, Canada
Source: Donald Doell
Description: Tan to pale yellow acicular, associated with albite, calcite, and analcime
Raman shift (cm-1)	intensity
94.4962	75474.5
97.871	75554.3
101.246	74591.9
104.621	75129.2
107.996	75748.7
111.37	77055.2
114.745	78500.7
118.12	79893.3
121.495	81269.7
124.87	82701.9
128.244	84248
131.619	85641.4
134.994	87409.1
138.369	89399.2
141.744	91253.1
145.119	93823.9
148.493	96300.1
151.868	98658.3
155.243	101622
158.618	104816
161.993	108513
165.367	113287
168.742	117405
172.117	122610
175.492	127424
178.867	132851
182.242	137813
185.616	142505
188.991	146679
192.366	151321
195.741	156593
199.115	161629
202.49	167772
205.865	174304
209.24	181590
212.615	189256
215.99	197399
219.364	206207
222.739	214746
226.114	223669
229.489	232636
232.864	240671
236.238	250178
239.613	259918
242.988	268371
246.363	278133
249.738	288337
253.113	296999
256.487	306305
259.862	317536
263.237	328613
266.612	339556
269.987	351068
273.361	362231
276.736	373565
280.111	383755
283.486	391944
286.861	397879
290.236	404030
293.61	405902
296.985	407883
300.36	407585
303.735	407005
307.11	406310
310.485	404692
313.859	403960
317.234	406125
320.609	407334
323.984	411110
327.359	415628
330.733	418619
334.108	422585
337.483	429182
340.858	432098
344.233	432946
347.608	432667
350.982	431296
354.357	429870
357.732	424939
361.107	416984
364.482	407574
367.856	399113
371.231	392570
374.606	381084
377.981	371771
381.356	362928
384.731	355506
388.105	349532
391.48	341239
394.855	335810
398.23	328161
401.605	323813
404.979	318427
408.354	312879
411.729	307693
415.104	302966
418.479	297434
421.853	292727
425.228	287008
428.603	280868
431.978	275782
435.353	269979
438.728	264515
442.102	258771
445.477	253376
448.852	248621
452.227	243924
455.602	238751
458.976	234649
462.351	229671
465.726	225973
469.101	221268
472.476	218085
475.851	213955
479.225	209833
482.6	206104
485.975	201897
489.35	198276
492.725	194819
496.099	192471
499.474	188764
502.849	185979
506.224	182893
509.599	180425
512.973	177767
516.348	175712
519.723	172757
523.098	171095
526.473	168893
529.848	167030
533.222	165696
536.597	164914
539.972	163651
543.347	162256
546.722	161449
550.096	160819
553.471	161109
556.846	160816
560.221	161782
563.596	161100
566.971	161258
570.345	162078
573.72	163124
577.095	163914
580.47	165312
583.845	165986
587.22	167149
590.594	168262
593.969	169604
597.344	170068
600.719	171126
604.094	172013
607.468	171854
610.843	172247
614.218	172050
617.593	171755
620.968	171380
624.342	171443
627.717	171069
631.092	170468
634.467	170471
637.842	169658
641.217	169068
644.591	168477
647.966	168237
651.341	167979
654.716	166513
658.091	165957
661.466	164663
664.84	163067
668.215	161369
671.59	158690
674.965	156606
678.34	154160
681.714	151042
685.089	147929
688.464	145271
691.839	141657
695.214	138315
698.588	134592
701.963	131380
705.338	128554
708.713	125557
712.088	122505
715.462	119172
718.837	116794
722.212	113437
725.587	110775
728.962	108355
732.337	106598
735.711	103411
739.086	101127
742.461	98790.7
745.836	96938.4
749.211	95001.6
752.586	92691.2
755.96	90746.5
759.335	88922.9
762.71	87363
766.085	85930.8
769.46	84502.8
772.834	82890.2
776.209	81272.4
779.584	80399.6
782.959	78869.8
786.334	77653.8
789.708	76733.5
793.083	76533.1
796.458	75162.9
799.833	73680.6
803.208	72914.5
806.583	72625.4
809.957	71930
813.332	70750.1
816.707	70228.2
820.082	70047.6
823.457	69361.9
826.832	68019
830.206	67474.9
833.581	67180.8
836.956	66992
840.331	66429.6
843.706	66102.1
847.08	65363.7
850.455	64976.3
853.83	65035.9
857.205	64156.8
860.58	63823.1
863.955	63821.5
867.329	63670.6
870.704	63014.2
874.079	62977.2
877.454	62623.1
880.829	62429.1
884.203	62203.4
887.578	62089.6
890.953	61592.9
894.328	61482.4
897.703	61237.4
901.077	61573.1
904.452	61299
907.827	61464.4
911.202	61141.3
914.577	61081.1
917.952	61443.7
921.326	61200
924.701	61320.6
928.076	61558.1
931.451	61733.8
934.826	61871.3
938.2	62155.9
941.575	62408.2
944.95	62140.8
948.325	62917.8
951.7	63034.3
955.074	63624.4
958.449	63699.1
961.824	63926.3
965.199	64189.6
968.574	65518.8
971.949	65531
975.323	66035.1
978.698	66717.9
982.073	67955.3
985.448	68169.2
988.823	69225.3
992.197	69785.6
995.572	70854.1
998.947	71955.8
1002.32	72924.7
1005.7	74107.3
1009.07	75311.1
1012.45	76312.2
1015.82	77975.2
1019.2	79288.4
1022.57	80073.2
1025.95	81748.8
1029.32	83655.1
1032.69	85326.8
1036.07	87744.4
1039.44	89272.3
1042.82	90791.9
1046.19	92577.9
1049.57	95038.4
1052.94	96879.7
1056.32	99621.1
1059.69	102470
1063.07	104515
1066.44	107196
1069.82	110104
1073.19	112857
1076.57	115544
1079.94	117846
1083.32	121560
1086.69	124403
1090.07	129027
1093.44	132216
1096.82	134979
1100.19	138276
1103.57	142666
1106.94	146347
1110.32	151831
1113.69	154530
1117.07	159868
1120.44	164902
1123.82	170418
1127.19	175904
1130.57	181817
1133.94	187926
1137.32	194684
1140.69	201708
1144.06	208121
1147.44	216973
1150.81	222985
1154.19	232345
1157.56	240276
1160.94	250126
1164.31	259832
1167.69	271463
1171.06	282708
1174.44	296900
1177.81	309361
1181.19	325618
1184.56	339592
1187.94	357977
1191.31	378477
1194.69	399823
1198.06	423803
1201.44	450972
1204.81	481152
1208.19	513359
1211.56	552730
1214.93	595460
1218.31	642472
1221.68	690758
1225.06	739174
1228.43	783524
1231.81	822013
1235.18	857088
1238.56	887476
1241.93	923128
1245.31	971303
1248.68	1.03132e+06
1252.06	1.09734e+06
1255.43	1.16921e+06
1258.81	1.24451e+06
1262.18	1.32019e+06
1265.56	1.38605e+06
1268.93	1.44163e+06
1272.31	1.48949e+06
1275.68	1.53107e+06
1279.06	1.56592e+06
1282.43	1.59601e+06
