Measurement: Raman, 780 nm, unoriented, Raman Data RAW
Mineral: Renierite
Rruff sample: R050428
Ideal chemistry: (Cu^1+^,Cu^2+^Zn^2+^)_11_(Fe^2+^,Fe^3+^)_4_(Ge^4+^,As^5+^)_2_S^2-^_16_
Locality: Tsumeb mine, Tsumeb, Otavi District, Oshikoto, Namibia
Source: University of Arizona Mineral Museum
Description: Reddish bronze metallic massive, associated with siderite.
Measured chemistry: (Cu_10.73_Zn_0.28_)_Σ=11_Fe_4.00_(Ge_1.35_As_0.65_)_Σ=2_S_16.00_
Raman shift (cm-1)	intensity
143.441	21.6043
146.334	22.9554
149.227	22.5936
152.119	21.4804
155.012	20.8901
157.905	22.0649
160.798	21.4454
163.69	21.3698
166.583	21.1148
169.476	20.4268
172.368	20.3839
175.261	21.172
178.154	20.6603
181.046	20.9494
183.939	20.369
186.832	20.155
189.725	20.0078
192.617	20.0554
195.51	20.2616
198.403	20.533
201.295	20.0713
204.188	19.4381
207.081	19.9583
209.973	19.8203
212.866	19.909
215.759	19.3627
218.651	19.9762
221.544	19.7645
224.437	19.1249
227.33	20.3046
230.222	20.3611
233.115	20.4455
236.008	19.4019
238.9	19.9082
241.793	20.6894
244.686	20.2706
247.578	20.7379
250.471	20.0069
253.364	20.2535
256.257	19.8023
259.149	19.9737
262.042	20.1157
264.935	20.234
267.827	20.6466
270.72	19.6089
273.613	20.4949
276.505	20.3212
279.398	20.3105
282.291	20.9113
285.184	20.4213
288.076	20.47
290.969	20.4017
293.862	20.8181
296.755	20.2037
299.647	20.1131
302.54	20.2807
305.433	20.2676
308.325	20.4667
311.218	19.9926
314.111	20.5631
317.003	20.9379
319.896	21.1758
322.789	20.8602
325.682	20.7552
328.574	20.145
331.467	20.1768
334.36	19.319
337.252	19.6764
340.145	19.8697
343.038	19.8088
345.93	19.9632
348.823	20.2287
351.716	20.3332
354.608	19.1979
357.501	19.2036
360.394	19.3064
363.287	19.1331
366.179	19.0372
369.072	18.7584
371.965	19.1205
374.857	18.828
377.75	18.3079
380.643	18.2065
383.536	18.2546
386.428	17.8602
389.321	17.7796
392.214	17.9535
395.106	17.7403
397.999	18.1579
400.892	17.8052
403.784	17.4963
406.677	17.2958
409.57	16.9103
412.462	16.9505
415.355	16.9669
418.248	17.3955
421.141	16.6177
424.033	17.1036
426.926	17.1019
429.819	16.602
432.711	16.8622
435.604	16.6434
438.497	16.5404
441.389	16.4451
444.282	16.8008
447.175	16.3101
450.068	16.4305
452.96	16.263
455.853	15.7531
458.746	16.3372
461.639	15.8565
464.531	16.0239
467.424	15.2621
470.317	15.5653
473.209	15.2959
476.102	14.8826
478.995	15.8639
481.887	15.6324
484.78	15.3827
487.673	15.0181
490.565	15.4235
493.458	14.7856
496.351	15.1185
499.244	14.8087
502.136	15.0155
505.029	15.2277
507.922	14.4786
510.814	15.0052
513.707	14.5275
516.6	14.7075
519.492	14.5529
522.385	13.9891
525.278	14.0102
528.171	14.2413
531.063	14.041
533.956	14.1043
536.849	13.6936
539.741	13.6916
542.634	14.4485
545.527	14.4625
548.419	13.1402
551.312	13.1965
554.205	12.8259
557.098	14.0262
559.99	13.6078
562.883	13.4193
565.776	13.2519
568.668	13.3707
571.561	13.1588
574.454	13.6522
577.346	13.6198
580.239	13.3918
583.132	13.7316
586.025	13.2925
588.917	12.8198
591.81	14.1203
594.703	13.4207
597.596	13.3623
600.488	13.6201
603.381	13.3064
606.274	13.6102
609.166	13.9652
612.059	13.3404
614.952	12.7326
617.844	13.2902
620.737	13.4109
623.63	13.5788
626.523	12.972
629.415	13.0336
632.308	13.4325
635.201	13.8834
638.093	13.886
640.986	13.3724
643.879	13.8812
646.771	13.4551
649.664	13.8867
652.557	12.8881
655.449	13.6232
658.342	13.307
661.235	14.1473
664.128	13.5419
667.02	13.9175
669.913	13.7538
672.806	13.6385
675.698	13.9253
678.591	13.5323
681.484	13.6863
684.376	13.5008
687.269	14.0332
690.162	13.9404
693.055	14.2122
695.947	13.4629
698.84	13.603
701.733	13.5632
704.625	13.4799
707.518	13.4033
710.411	13.5426
713.303	13.5658
716.196	13.6481
719.089	13.5627
721.982	13.7663
724.874	13.5738
727.767	13.2142
730.66	13.2993
733.552	14.4166
736.445	13.4861
739.338	13.3523
742.231	13.3447
745.123	13.4334
748.016	13.3764
750.909	13.7189
753.801	13.46
756.694	13.1592
759.587	13.2958
762.479	13.1865
765.372	12.9899
768.265	13.3305
771.158	12.8541
774.05	13.0465
776.943	12.973
779.836	13.2206
782.728	13.9425
785.621	12.9925
788.514	12.8773
791.406	13.0272
794.299	13.3569
797.192	12.729
800.085	13.1427
802.977	13.3043
805.87	13.0599
808.763	12.8304
811.655	13.1918
814.548	12.8435
817.441	12.5616
820.333	12.7321
823.226	12.9205
826.119	12.7865
829.012	13.2948
831.904	12.8546
834.797	12.3678
837.69	11.9261
840.582	11.9912
843.475	12.0167
846.368	12.4117
849.26	12.8958
852.153	12.5764
855.046	12.5877
857.939	12.2056
860.831	12.0961
863.724	11.7358
866.617	12.6734
869.509	11.6924
872.402	11.7695
875.295	11.8377
878.188	11.8286
881.08	11.2382
883.973	11.6471
886.866	10.8388
889.758	10.7447
892.651	11.3127
895.544	11.7452
898.436	11.2769
901.329	11.2699
904.222	11.2042
907.115	10.9036
910.007	10.0541
912.9	10.6529
915.793	10.5655
918.685	10.7844
921.578	10.7032
924.471	10.5166
927.364	10.2704
930.256	10.4736
933.149	10.5211
936.042	10.8619
938.934	11.2428
941.827	10.8965
944.72	10.1818
947.612	10.6434
950.505	11.0364
953.398	10.8666
956.29	11.0931
959.183	10.6029
962.076	10.5131
964.969	11.2845
967.861	11.6549
970.754	10.9091
973.647	11.0989
976.539	11.209
979.432	11.0726
982.325	11.33
985.217	10.4735
988.11	11.8794
991.003	11.314
993.896	11.4357
996.788	11.8734
999.681	11.8621
1002.57	11.8001
1005.47	11.5333
1008.36	11.4471
1011.25	11.6624
1014.14	11.6163
1017.04	12.2967
1019.93	11.5834
1022.82	12.009
1025.71	11.4788
1028.61	11.7077
1031.5	11.8703
1034.39	11.8285
1037.29	12.2549
1040.18	12.0076
1043.07	12.1019
1045.96	12.787
1048.86	12.342
1051.75	12.3505
1054.64	12.6121
1057.54	12.7573
1060.43	12.5174
1063.32	12.5002
1066.21	12.4211
1069.11	12.7587
1072	12.3337
1074.89	13.283
1077.78	13.1189
1080.68	12.8152
1083.57	13.7936
1086.46	14.0016
1089.36	12.5054
1092.25	13.7555
1095.14	13.2882
1098.03	12.2981
1100.93	13.9272
1103.82	13.5473
1106.71	13.3233
1109.6	13.5423
1112.5	13.6248
1115.39	14.0111
1118.28	13.7019
1121.17	13.5746
1124.07	13.5384
1126.96	14.1489
1129.85	14.6527
1132.74	14.737
1135.64	14.8505
1138.53	13.8239
1141.42	14.4716
1144.32	14.9289
1147.21	14.695
1150.1	15.0255
1152.99	14.6059
1155.89	14.6267
1158.78	15.1632
1161.67	15.6019
1164.57	15.3007
1167.46	16.1415
1170.35	16.2601
1173.24	15.5948
1176.14	15.6446
1179.03	16.4088
1181.92	16.4946
1184.81	15.9574
1187.71	16.2614
1190.6	16.373
1193.49	16.3407
1196.38	16.4596
1199.28	16.3272
1202.17	16.3543
1205.06	17.0284
1207.96	17.188
1210.85	17.4064
1213.74	17.6567
1216.63	17.9326
1219.53	18.4914
1222.42	18.1085
1225.31	18.2219
1228.2	17.5211
1231.1	18.4697
1233.99	18.2031
1236.88	18.6214
1239.78	18.5081
1242.67	18.4998
1245.56	18.736
1248.45	18.1501
1251.35	19.0504
1254.24	19.6109
1257.13	19.1385
1260.02	19.5492
1262.92	19.2149
1265.81	19.6763
1268.7	19.8638
1271.6	19.8942
1274.49	20.2647
1277.38	20.6554
1280.27	19.6157
1283.17	20.779
1286.06	20.9606
