Measurement: Raman, 532 nm, unoriented, Raman Data Processed
Mineral: Renierite
Rruff sample: R050428
Ideal chemistry: (Cu^1+^,Cu^2+^Zn^2+^)_11_(Fe^2+^,Fe^3+^)_4_(Ge^4+^,As^5+^)_2_S^2-^_16_
Locality: Tsumeb mine, Tsumeb, Otavi District, Oshikoto, Namibia
Source: University of Arizona Mineral Museum
Description: Reddish bronze metallic massive, associated with siderite.
Measured chemistry: (Cu_10.73_Zn_0.28_)_Σ=11_Fe_4.00_(Ge_1.35_As_0.65_)_Σ=2_S_16.00_
Raman shift (cm-1)	intensity
145.487	0
148.862	0.08802
152.237	3.19126
155.612	3.74528
158.986	2.29933
162.361	4.34306
165.736	2.3594
169.111	3.07093
172.486	3.26672
175.86	1.57035
179.235	2.67007
182.61	1.51357
185.985	2.50374
189.36	1.37415
192.734	2.01221
196.109	2.50668
199.484	1.43204
202.859	2.17826
206.234	0.463821
209.608	0.882767
212.983	0.468361
216.358	0.253815
219.733	0.68824
223.108	0.680962
226.483	0.398262
229.857	1.25642
233.232	0.327156
236.607	1.34766
239.982	1.20027
243.357	0.656441
246.732	0.705093
250.106	1.5471
253.481	0.663391
256.856	1.31059
260.231	1.65951
263.606	2.1685
266.98	1.52907
270.355	2.4203
273.73	2.15144
277.105	2.35499
280.48	1.72874
283.854	2.55923
287.229	1.47474
290.604	2.27371
293.979	1.56649
297.354	0.782112
300.729	1.09551
304.103	0.27552
307.478	0.64682
310.853	0.882347
314.228	1.37541
317.603	1.21709
320.978	0.688637
324.352	1.67231
327.727	1.45837
331.102	2.26987
334.477	2.73436
337.852	1.80116
341.226	2.52309
344.601	3.93057
347.976	4.41018
351.351	4.843
354.726	4.27306
358.1	6.13931
361.475	4.19973
364.85	4.72561
368.225	3.65092
371.6	1.37465
374.974	1.98271
378.349	1.92062
381.724	0.852585
385.099	0.568268
388.474	0.428329
391.849	2.01984
395.223	0.335304
398.598	0.516487
401.973	0.995895
405.348	0.77002
408.723	0.85009
412.098	0.8144
415.472	0.395279
418.847	0.187286
422.222	0.514999
425.597	0.283875
428.972	0.326523
432.346	0.467804
435.721	0.804909
439.096	0.220879
442.471	0.954819
445.846	1.11727
449.221	0.195274
452.595	0.086205
455.97	0.062622
459.345	0.78833
462.72	0.384804
466.095	0.999184
469.469	0.216766
472.844	1.17674
476.219	1.50156
479.594	1.74431
482.969	0.675346
486.344	0.49456
489.718	0.858429
493.093	0.31543
496.468	0.381828
499.843	1.13413
503.218	1.02458
506.592	0.523643
509.967	1.15729
513.342	0.381058
516.717	0.910057
520.092	1.40877
523.466	0.291306
526.841	1.60333
530.216	1.15518
533.591	0.495712
536.966	1.05502
540.341	1.92366
543.715	1.62779
547.09	1.73476
550.465	0.409225
553.84	0.114586
557.215	2.05893
560.59	0.957497
563.964	0.738792
567.339	0.547142
570.714	1.17901
574.089	2.2494
577.464	0.800049
580.838	1.02441
584.213	1.05143
587.588	2.04429
590.963	0.971428
594.338	0.754845
597.712	0.459991
601.087	0.504494
604.462	0.322586
607.837	1.38186
611.212	0.194275
614.587	0.194443
617.961	0.053368
621.336	0.179825
624.711	0.655113
628.086	0.34008
631.461	0.636818
634.835	0.439354
638.21	1.16743
641.585	1.78519
644.96	1.49072
648.335	1.07958
651.71	2.2321
655.084	1.58462
658.459	1.48835
661.834	1.8814
665.209	1.76776
668.584	1.46549
671.958	2.11201
675.333	2.60554
678.708	2.15942
682.083	2.3623
685.458	2.15024
688.832	3.29118
692.207	2.67235
695.582	3.28085
698.957	3.43339
702.332	3.60387
705.707	2.57265
709.081	3.3952
712.456	2.03725
715.831	3.22929
719.206	2.81583
722.581	2.05382
725.955	3.43562
729.33	2.44305
732.705	2.0166
736.08	3.73945
739.455	1.93192
742.83	2.27791
746.204	1.46599
749.579	1.91972
752.954	1.0809
756.329	0.819
759.704	0.845551
763.078	0.633484
766.453	1.38264
769.828	0.774231
773.203	0.503899
776.578	0.15023
779.952	0.660095
783.327	0.07399
786.702	0.65313
790.077	0.120209
793.452	0.250877
796.827	1.02592
800.201	0.049271
803.576	0.74868
806.951	1.11724
810.326	0.923134
813.701	0.708221
817.076	0.047234
820.45	0.134857
823.825	0.603561
827.2	0.349625
830.575	0.406776
833.95	0.338295
837.324	1.87346
840.699	2.43848
844.074	1.19608
847.449	0.720276
850.824	2.18922
854.198	2.03698
857.573	3.09164
860.948	2.4674
864.323	2.3294
867.698	2.60615
871.073	2.92215
874.447	1.50104
877.822	1.76618
881.197	1.57053
884.572	1.42846
887.947	0.542671
891.322	0.177746
894.696	0.397907
898.071	0.630322
901.446	0.515285
904.821	1.37371
908.196	0.243832
911.57	0.321377
914.945	0.012314
918.32	0.034523
921.695	0.146358
925.07	0.778923
928.444	0.695656
931.819	0.176022
935.194	0.751545
938.569	0.827877
941.944	0.885857
945.318	0.820057
948.693	0.951019
952.068	0.638615
955.443	1.01921
958.818	1.46391
962.193	1.55519
965.567	0.759743
968.942	0.53019
972.317	1.03842
975.692	0.9478
979.067	0.898003
982.442	1.12388
985.816	1.53277
989.191	0.723305
992.566	0.360352
995.941	1.83334
999.316	0.441414
1002.69	0.052444
1006.07	0.903183
1009.44	0.64106
1012.82	0.959221
1016.19	1.20138
1019.57	1.0293
1022.94	1.73931
1026.31	1.54588
1029.69	1.4347
1033.06	0.611275
1036.44	1.23677
1039.81	0.835129
1043.19	0.961868
1046.56	2.01215
1049.94	1.66322
1053.31	1.17745
1056.69	1.61182
1060.06	0.597969
1063.44	2.25938
1066.81	0.567986
1070.19	1.38634
1073.56	0.80658
1076.94	0.905449
1080.31	0.859863
1083.69	1.79928
1087.06	0.243439
1090.44	0.618301
1093.81	1.63884
1097.18	1.46099
1100.56	0.217117
1103.93	0.31192
1107.31	0.225288
1110.68	1.65935
1114.06	1.07522
1117.43	0.76619
1120.81	0.606979
1124.18	0.608444
1127.56	0.312485
1130.93	1.42405
1134.31	0.933411
1137.68	1.67956
1141.06	1.95449
1144.43	0.84465
1147.81	0.340691
1151.18	1.91343
1154.56	0.580063
1157.93	1.17879
1161.31	0.029602
1164.68	0.386032
1168.06	0.640236
1171.43	1.17091
1174.81	1.04898
1178.18	1.2548
1181.56	1.01955
1184.93	0.081604
1188.31	0.736
1191.68	0.708351
1195.06	1.64921
1198.43	1.41483
1201.81	1.70479
1205.18	0.989365
1208.55	1.25477
1211.93	1.74483
1215.3	1.2626
1218.68	0.666924
1222.05	2.36448
1225.43	1.05835
1228.8	0.274483
1232.18	0.972504
1235.55	0.787201
1238.93	1.96009
1242.3	0.70282
1245.68	0.834114
1249.05	0.454346
1252.43	1.19167
1255.8	2.30843
1259.18	1.49214
1262.55	0.087036
1265.93	0.784332
1269.3	1.2674
1272.68	0.826843
1276.05	0.803192
1279.42	0.915192
1282.8	1.04756
1286.17	1.88625
1289.55	1.32877
1292.92	0.473907
1296.3	0.052475
1299.67	1.0997
1303.05	0.114716
