Measurement: Raman, 785 nm, unoriented, Raman Data Processed
Mineral: Rheniite
Rruff sample: R050362
Ideal chemistry: ReS_2_
Locality: Kudryaviy Volcano, Iturup Island, Kurilian Chain, Russia
Source: University of Arizona Mineral Museum
Description: Bright, shiney metallic crystals associated with anhydrite
Raman shift (cm-1)	intensity
90.23	0
93.605	40.757
96.98	49.974
100.355	3.108
103.73	32.971
107.105	141.906
110.479	342.186
113.854	271.691
117.229	66.67
120.604	428.598
123.979	1467.15
127.353	1632.32
130.728	1165.76
134.103	607.921
137.478	636.425
140.853	939.392
144.227	1162.48
147.602	2023.16
150.977	2125.57
154.352	841.822
157.727	1013.4
161.102	1049.79
164.476	475.893
167.851	346.068
171.226	276.145
174.601	259.957
177.976	174.43
181.35	158.271
184.725	117.37
188.1	132.853
191.475	116.658
194.85	82.507
198.225	88.791
201.599	150.458
204.974	205.009
208.349	351.501
211.724	361.674
215.099	71.841
218.473	17.049
221.848	71.614
225.223	181.499
228.598	401.17
231.973	778.422
235.348	364.677
238.722	4.166
242.097	5.16
245.472	16.691
248.847	25.969
252.222	25.807
255.596	9.425
258.971	3.05
262.346	18.642
265.721	30.448
269.096	43.156
272.471	110.546
275.845	230.718
279.22	275.415
282.595	177.722
285.97	20.764
289.345	22.721
292.72	26.58
296.094	54.346
299.469	120.511
302.844	272.612
306.219	382.992
309.594	251.407
312.968	187.988
316.343	282.59
319.718	331.804
323.093	287.019
326.468	75.02
329.842	16.806
333.217	43.562
336.592	67.988
339.967	171.711
343.342	294.19
346.716	309.196
350.091	46.432
353.466	14.269
356.841	33.88
360.216	91.435
363.591	184.595
366.965	190.943
370.34	117.889
373.715	143.324
377.09	41.469
380.465	14.837
383.84	22.689
387.214	24.804
390.589	26.975
393.964	57.701
397.339	81.333
400.714	151.937
404.088	209.213
407.463	206.053
410.838	293.043
414.213	411.685
417.588	373.276
420.962	106.107
424.337	96.771
427.712	85.565
431.087	141.418
434.462	173.835
437.837	73.286
441.211	46.528
444.586	51.323
447.961	24.488
451.336	48.117
454.711	3.994
458.086	24.399
461.46	9.093
464.835	3.557
468.21	4.658
471.585	29.267
474.96	42.467
478.334	38.672
481.709	55.115
485.084	52.455
488.459	57.411
491.834	43.239
495.208	26.516
498.583	42.836
501.958	65.811
505.333	20.16
508.708	42.345
512.083	13.733
515.457	77.569
518.832	84.591
522.207	53.191
525.582	32.4
528.957	58.558
532.331	72.046
535.706	27.086
539.081	1.702
542.456	58.949
545.831	33
549.206	77.241
552.58	46.761
555.955	36.493
559.33	53.687
562.705	76.334
566.08	21.272
569.454	47.11
572.829	36.396
576.204	61.53
579.579	5.144
582.954	16.879
586.328	14.219
589.703	43.78
593.078	23.032
596.453	9.91
599.828	22.719
603.203	31.934
606.577	29.886
609.952	53.82
613.327	60.792
616.702	56.904
620.077	63.096
623.451	31.206
626.826	34.141
630.201	98.682
633.576	48.523
636.951	17.051
640.326	37.989
643.7	31.15
647.075	68.107
650.45	75.469
653.825	51.32
657.2	12.795
660.575	8.093
663.949	1.445
667.324	10.289
670.699	73.249
674.074	60.203
677.448	8.206
680.823	66.351
684.198	55.33
687.573	80.454
690.948	89.423
694.323	49.076
697.697	50.269
701.072	46.546
704.447	30.139
707.822	41.548
711.197	46.067
714.571	31.225
717.946	55.72
721.321	52.989
724.696	117.16
728.071	74.576
731.446	61.672
734.82	59.717
738.195	49.207
741.57	50.609
744.945	9.589
748.32	7.482
751.695	30.172
755.069	9.907
758.444	39.569
761.819	49.605
765.194	0.603
768.569	25.241
771.943	64.582
775.318	52.012
778.693	19.371
782.068	25.927
785.443	51.2
788.818	78.622
792.192	55.376
795.567	21.278
798.942	59.443
802.317	55.001
805.692	50.842
809.066	35.006
812.441	45.015
815.816	18.881
819.191	13.736
822.566	26.82
825.94	45.875
829.315	36.943
832.69	22.083
836.065	61.75
839.44	45.204
842.815	23.713
846.189	37.363
849.564	2.206
852.939	32.333
856.314	31.038
859.689	52.973
863.063	13.969
866.438	41.044
869.813	46.566
873.188	50.024
876.563	21.421
879.938	57.876
883.312	45.102
886.687	24.501
890.062	13.573
893.437	45.212
896.812	25.654
900.186	19.868
903.561	37.03
906.936	16.148
910.311	16.57
913.686	55.759
917.06	34.934
920.435	11.832
923.81	21.063
927.185	29.066
930.56	47.953
933.935	65.155
937.309	16.019
940.684	20.512
944.059	46.422
947.434	4.072
950.809	43.901
954.183	18.462
957.558	58.432
960.933	56.023
964.308	46.405
967.683	51.622
971.058	9.362
974.432	34.496
977.807	47.81
981.182	13.661
984.557	39
987.932	68.158
991.307	45.654
994.681	26.124
998.056	4.597
1001.43	18.49
1004.81	40.058
1008.18	18.554
1011.55	23.143
1014.93	41.491
1018.3	16.187
1021.68	43.628
1025.06	27.816
1028.43	46.062
1031.8	39.825
1035.18	37.278
1038.55	18.932
1041.93	59.299
1045.3	40.723
1048.68	61.727
1052.05	61.986
1055.43	49.532
1058.8	2.711
1062.18	7.503
1065.55	11.783
1068.93	29.605
1072.3	49.583
1075.68	15.408
1079.05	42.182
1082.43	7.794
1085.8	27.501
1089.18	10.672
1092.55	62.726
1095.93	7.685
1099.3	27.127
1102.67	29.571
1106.05	41.795
1109.42	21.297
1112.8	29.252
1116.17	65.161
1119.55	62.096
1122.92	47.089
1126.3	5.016
1129.67	36.732
1133.05	58.816
1136.42	16.516
1139.8	26.417
1143.17	46.641
1146.55	43.907
1149.92	32.863
1153.3	46.778
1156.67	30.515
1160.05	5.352
1163.42	21.812
1166.8	45.549
1170.17	22.733
1173.55	7.245
1176.92	79.253
1180.3	35.15
1183.67	68.589
1187.05	21.428
1190.42	59.434
1193.8	71.51
1197.17	34.147
1200.55	52.262
1203.92	67.24
1207.3	8.274
1210.67	17.469
1214.04	45.248
1217.42	20.79
1220.79	82.296
1224.17	42.41
1227.54	1.351
1230.92	94.6
1234.29	41.63
1237.67	40.967
1241.04	34.823
1244.42	25.457
1247.79	55.167
1251.17	37.132
1254.54	26.99
1257.92	44.669
1261.29	42.223
1264.67	36.271
1268.04	23.152
1271.42	13.08
