Measurement: Raman, 785 nm, unoriented, Raman Data Processed
Mineral: Rhodarsenide
Rruff sample: R070074
Ideal chemistry: Rh_2_As
Locality: Miass River, Urals, Russia
Source: Michael Scott
Description: Dark gray metallic inclusion in sperrylite and Os,Ir,Ru matrix. The sample is a polished fragment embedded in epoxy
Measured chemistry: dark inclusion in the gray phase: (Rh_1.52_Pt_0.19_Pd_0.17_Ni_0.10_Ru_0.01_Cu_0.01_)_Î£=2_As_1.00_
Raman shift (cm-1)	intensity
181.093	0
183.985	101.415
186.878	90.0559
189.771	405.721
192.663	58.6399
195.556	419.954
198.449	232.645
201.341	188.463
204.234	296.145
207.127	226.455
210.019	175.726
212.912	143.712
215.805	262.403
218.698	216.855
221.59	231.991
224.483	127.799
227.376	17.0842
230.268	39.675
233.161	3.57605
236.054	50.2343
238.946	9.93054
241.839	65.0284
244.732	80.6871
247.625	83.9171
250.517	142.536
253.41	283.944
256.303	265.179
259.195	233.373
262.088	237.364
264.981	217.326
267.873	249.656
270.766	263.976
273.659	263.883
276.552	249.877
279.444	236.026
282.337	226.883
285.23	195.973
288.122	223.086
291.015	156.438
293.908	159.739
296.8	154.49
299.693	161.291
302.586	180.162
305.479	176.694
308.371	195.832
311.264	198.592
314.157	141.254
317.049	136.136
319.942	133.029
322.835	93.2481
325.728	90.132
328.62	84.7779
331.513	77.4749
334.406	86.6404
337.298	93.2972
340.191	128.944
343.084	115.285
345.976	136.525
348.869	110.983
351.762	93.3334
354.654	77.5897
357.547	39.3097
360.44	21.3021
363.333	17.2476
366.225	0.232727
369.118	11.3017
372.011	46.9365
374.903	27.2412
377.796	40.0027
380.689	65.1558
383.582	60.3117
386.474	73.6249
389.367	48.8489
392.26	58.6747
395.152	22.3813
398.045	104.876
400.938	12.6594
403.83	33.394
406.723	14.6509
409.616	45.6874
412.509	50.4692
415.401	39.4682
418.294	58.1104
421.187	50.3466
424.079	39.1317
426.972	26.752
429.865	43.9775
432.757	6.07434
435.65	5.26129
438.543	6.15186
441.435	5.49054
444.328	1.25647
447.221	17.9114
450.114	24.7599
453.006	28.8393
455.899	18.8739
458.792	23.4432
461.684	30.2215
464.577	15.1171
467.47	29.9482
470.363	38.1353
473.255	20.1321
476.148	5.95734
479.041	14.011
481.933	0.957092
484.826	21.3071
487.719	20.9632
490.611	13.5517
493.504	50.1348
496.397	19.4825
499.289	31.1633
502.182	23.9215
505.075	44.531
507.968	3.21197
510.86	31.1899
513.753	11.4402
516.646	16.0385
519.538	28.2861
522.431	42.9417
525.324	12.1697
528.217	42.3974
531.109	26.9145
534.002	33.9488
536.895	27.6039
539.787	13.0269
542.68	20.7816
545.573	23.6494
548.466	17.8852
551.358	31.2512
554.251	10.6793
557.144	25.035
560.036	34.7112
562.929	35.9199
565.822	13.9243
568.714	42.0809
571.607	39.8212
574.5	49.3154
577.392	5.65424
580.285	42.2714
583.178	27.7895
586.071	4.81311
588.963	42.9598
591.856	28.7944
594.749	19.7108
597.641	37.5383
600.534	52.4666
603.427	59.7656
606.319	33.0388
609.212	32.2617
612.105	18.818
614.997	27.6183
617.89	23.0926
620.783	36.5524
623.676	14.952
626.568	11.6096
629.461	23.2807
632.354	41.3675
635.246	53.2343
638.139	59.7937
641.032	29.5392
643.924	23.1917
646.817	14.941
649.71	37.5348
652.603	9.61005
655.495	30.5076
658.388	38.0431
661.281	11.8295
664.173	28.7416
667.066	10.1154
669.959	33.3704
672.851	34.9338
675.744	16.7875
678.637	22.3311
681.53	22.4446
684.422	20.4354
687.315	8.33893
690.208	6.10626
693.1	0.570068
695.993	23.1251
698.886	19.0049
701.779	33.8075
704.671	28.3689
707.564	28.7186
710.457	30.1185
713.349	19.4002
716.242	43.6303
719.135	27.3904
722.027	26.8732
724.92	4.36273
727.813	3.80688
730.706	31.5194
733.598	31.766
736.491	27.6401
739.384	28.6105
742.276	39.7358
745.169	24.6865
748.062	42.1279
750.954	28.954
753.847	18.9849
756.74	39.9136
759.633	37.0266
762.525	25.7924
765.418	7.18219
768.311	119.096
771.203	24.1162
774.096	28.9567
776.989	27.8502
779.881	11.1067
782.774	14.9328
785.667	2.28943
788.559	5.57214
791.452	27.3362
794.345	38.6032
797.238	10.4856
800.13	26.6085
803.023	3.35455
805.916	27.2181
808.808	38.4946
811.701	19.5226
814.594	35.5963
817.486	34.6202
820.379	55.4313
823.272	23.9264
826.165	45.256
829.057	2.13312
831.95	29.3486
834.843	1.15857
837.735	30.0273
840.628	37.206
843.521	0.039795
846.413	52.0403
849.306	59.6446
852.199	17.4477
855.092	5.81732
857.984	21.0761
860.877	11.3414
863.77	48.1946
866.662	32.5661
869.555	31.8193
872.448	18.8942
875.341	30.1211
878.233	6.72803
881.126	22.4285
884.019	34.5281
886.911	14.362
889.804	21.6514
892.697	6.28619
895.589	34.2975
898.482	38.2383
901.375	8.625
904.268	42.075
907.16	22.7656
910.053	0.921936
912.946	14.0464
915.838	6.97772
918.731	27.0935
921.624	0.792297
924.516	19.8175
927.409	13.9431
930.302	11.6903
933.194	34.5747
936.087	17.1637
938.98	18.1078
941.873	37.8486
944.765	22.0718
947.658	14.357
950.551	40.4125
953.443	26.3236
956.336	23.7832
959.229	44.8133
962.121	57.0776
965.014	32.975
967.907	6.01178
970.8	41.8484
973.692	22.335
976.585	35.6817
979.478	25.3408
982.37	19.0266
985.263	18.6188
988.156	17.561
991.048	20.5593
993.941	2.33386
996.834	15.7299
999.727	13.7265
1002.62	23.8687
1005.51	7.82886
1008.4	28.1527
1011.3	47.0215
1014.19	10.7029
1017.08	18.2831
1019.98	14.3066
1022.87	10.5969
1025.76	9.48834
1028.65	27.9029
1031.55	29.3082
1034.44	1.15472
1037.33	37.2495
1040.22	43.9618
1043.12	37.4774
1046.01	33.4129
1048.9	23.6111
1051.8	51.2415
1054.69	17.0446
1057.58	3.82782
1060.47	13.497
1063.37	15.9046
1066.26	19.2226
1069.15	36.76
1072.04	39.7716
1074.94	16.3795
1077.83	24.7248
1080.72	34.0975
1083.62	10.841
1086.51	16.1641
1089.4	41.4035
1092.29	15.004
1095.19	4.70618
1098.08	32.6641
1100.97	12.2259
1103.86	29.0701
1106.76	17.4352
1109.65	57.8746
1112.54	15.2413
1115.43	12.3028
1118.33	43.7408
1121.22	8.867
1124.11	8.7337
1127.01	36.6033
1129.9	39.3894
1132.79	33.4477
1135.68	90.0613
1138.58	19.2609
1141.47	31.5125
1144.36	31.1357
1147.25	25.2621
1150.15	35.8575
1153.04	5.61713
1155.93	17.5961
1158.83	49.6854
1161.72	10.5492
1164.61	33.4666
1167.5	44.9678
1170.4	33.0545
1173.29	23.4164
1176.18	38.6876
1179.07	48.8599
1181.97	26.5384
1184.86	42.9869
1187.75	12.1924
1190.64	13.2202
1193.54	31.8671
1196.43	53.2108
1199.32	20.9606
1202.22	33.4057
1205.11	21.2313
1208	26.8865
1210.89	15.457
1213.79	36.9879
1216.68	33.4862
1219.57	1.51477
1222.46	33.2431
1225.36	23.1466
1228.25	43.5211
1231.14	31.5894
1234.04	41.8483
1236.93	54.6757
1239.82	10.9517
