Measurement: Raman, 780 nm, unoriented, Raman Data Processed
Mineral: Rhodizite
Rruff sample: R110072
Ideal chemistry: KAl_4_Be_5_B_11_O_28_
Locality: Sahanivotry, Sud Antzirabe, Madagascar
Source: Renato & Adriana Pagano
Description: Pale yellow dodecahedra
Raman shift (cm-1)	intensity
186.098	37858.3
188.991	37684.2
191.884	37499.9
194.776	37355.3
197.669	37160.4
200.562	36915.5
203.455	36674.8
206.347	36546.3
209.24	36344.4
212.133	36138.4
215.025	35927.2
217.918	35734.8
220.811	35501.1
223.703	35302.2
226.596	35064.8
229.489	34791.8
232.382	34573.4
235.274	34386.5
238.167	34128.5
241.06	33864.9
243.952	33624
246.845	33414.9
249.738	33175.6
252.631	32897.1
255.523	32680.1
258.416	32433.8
261.309	32308.2
264.201	32040.4
267.094	31785.2
269.987	31615.2
272.879	31345.6
275.772	31106.4
278.665	30898.1
281.558	30639.3
284.45	30460.5
287.343	30186.3
290.236	29939.6
293.128	29784.9
296.021	29551.2
298.914	29295.1
301.806	28956.9
304.699	28712.2
307.592	28480.2
310.485	28279.1
313.377	28045.3
316.27	27810.4
319.163	27557.2
322.055	27349.5
324.948	27093.6
327.841	26875.8
330.733	26644.7
333.626	26374
336.519	26260.8
339.411	26018
342.304	25814.9
345.197	25586.3
348.09	25384.9
350.982	25170.1
353.875	24954
356.768	24738.8
359.66	24502.9
362.553	24313.1
365.446	24043.2
368.339	23881.8
371.231	23739.2
374.124	23483.1
377.017	23271.7
379.909	23071.6
382.802	22930.5
385.695	22769.9
388.587	22560.1
391.48	22368.8
394.373	22157.3
397.265	21974.3
400.158	21799.2
403.051	21580.3
405.944	21491.1
408.836	21243.6
411.729	21083.3
414.622	20976.1
417.514	20832.5
420.407	20741.3
423.3	20687.2
426.192	20615.1
429.085	20567.4
431.978	20470.2
434.871	20169.8
437.763	19845.6
440.656	19594
443.549	19451.9
446.441	19299.2
449.334	19112
452.227	18986.5
455.12	18840
458.012	18782.4
460.905	18691.7
463.798	18672.8
466.69	18736.7
469.583	18866.7
472.476	18776.2
475.368	18395.4
478.261	18056.1
481.154	17780.5
484.046	17537.6
486.939	17372.1
489.832	17241
492.725	17077
495.617	16987.5
498.51	16846.6
501.403	16716.1
504.295	16645.6
507.188	16502.6
510.081	16389.5
512.973	16304
515.866	16251.1
518.759	16068.6
521.652	15979.1
524.544	15865.5
527.437	15808.2
530.33	15727.1
533.222	15616.5
536.115	15566.9
539.008	15480.1
541.9	15425.5
544.793	15303.4
547.686	15233.8
550.579	15155.9
553.471	15097.6
556.364	15041.6
559.257	14979.3
562.149	14891
565.042	14858.9
567.935	14764.8
570.827	14732.1
573.72	14662.2
576.613	14635.7
579.506	14579.7
582.398	14533.1
585.291	14494.1
588.184	14440.9
591.077	14406.1
593.969	14350.9
596.862	14284.9
599.755	14241.2
602.647	14241
605.54	14196.6
608.433	14160.9
611.325	14116.2
614.218	14087.6
617.111	14082.6
620.004	14043
622.896	13998.2
625.789	13982.6
628.682	13977.9
631.574	13932.7
634.467	13930.9
637.36	13914.1
640.252	13911.2
643.145	13838.7
646.038	13874.4
648.931	13876.3
651.823	13844.4
654.716	13820.3
657.609	13773.5
660.501	13737.2
663.394	13714
666.287	13692
669.179	13725.1
672.072	13725.6
674.965	13659.9
677.857	13664.7
680.75	13674.7
683.643	13660.2
686.536	13658.8
689.428	13702.9
692.321	13686.4
695.214	13630.5
698.106	13654.2
700.999	13663.5
703.892	13699.5
706.784	13742.9
709.677	13752.9
712.57	13776.4
715.463	13763
718.355	13801.5
721.248	13798.5
724.141	13805.8
727.033	13851.7
729.926	13872.9
732.819	13892.1
735.712	13877.7
738.604	13921.8
741.497	13910.2
744.39	13956.2
747.282	13988.3
750.175	14058.2
753.068	14076.4
755.96	14062.8
758.853	14123.7
761.746	14143.2
764.639	14168.5
767.531	14208.4
770.424	14227.9
773.317	14302.1
776.209	14366.2
779.102	14420.7
781.995	14444.4
784.887	14492
787.78	14552.5
790.673	14613.9
793.566	14668
796.458	14740.1
799.351	14778.5
802.244	14806.4
805.136	14873.5
808.029	14943.8
810.922	14976.3
813.814	15032.5
816.707	15100
819.6	15168.2
822.492	15223
825.385	15287.2
828.278	15353
831.171	15413.7
834.063	15451.9
836.956	15551
839.849	15623.4
842.741	15625.4
845.634	15726.2
848.527	15771.4
851.419	15893.7
854.312	15924.4
857.205	16026.5
860.098	16077.8
862.99	16146.9
865.883	16208.2
868.776	16267.5
871.668	16329
874.561	16441
877.454	16473.2
880.346	16504.7
883.239	16603.9
886.132	16693.7
889.025	16682.5
891.917	16796.6
894.81	16882.9
897.703	16948.7
900.595	17020.2
903.488	17095.6
906.381	17224
909.274	17342.6
912.166	17427.4
915.059	17474.3
917.952	17590.9
920.844	17654.1
923.737	17757.7
926.63	17809.9
929.522	17935
932.415	18047.8
935.308	18172.4
938.201	18215.8
941.093	18349.2
943.986	18423.3
946.879	18538.8
949.771	18646.1
952.664	18775.6
955.557	18888.2
958.449	18973.9
961.342	19058.8
964.235	19183.3
967.128	19295.7
970.02	19396.5
972.913	19487.1
975.806	19605.9
978.698	19716.1
981.591	19856.4
984.484	19984.7
987.376	20103.8
990.269	20299
993.162	20387.4
996.054	20507.2
998.947	20652
1001.84	20768.2
1004.73	20896.2
1007.62	21038
1010.52	21179.4
1013.41	21329.4
1016.3	21460.2
1019.2	21567.4
1022.09	21713.3
1024.98	21854.8
1027.87	21979.7
1030.77	22143.9
1033.66	22322.3
1036.55	22498.4
1039.44	22575.1
1042.34	22699.6
1045.23	22792.3
1048.12	22963.7
1051.02	23154.7
1053.91	23305
1056.8	23504.3
1059.69	23616.7
1062.59	23800.3
1065.48	23920.3
1068.37	24070.2
1071.27	24197.3
1074.16	24367.3
1077.05	24514.1
1079.94	24678.6
1082.84	24825.3
1085.73	25013.8
1088.62	25183.9
1091.51	25301.4
1094.41	25462.6
1097.3	25599.6
1100.19	25781.3
1103.08	25908.1
1105.98	26048.9
1108.87	26266
1111.76	26397
1114.65	26520.7
1117.55	26639.7
1120.44	26826.5
1123.33	27033.3
1126.23	27202.6
1129.12	27445.9
1132.01	27594.8
1134.9	27885.5
1137.8	27949.8
1140.69	28217.9
1143.58	28400.3
1146.47	28579.3
1149.37	28779.3
1152.26	28940.8
1155.15	29132.7
1158.05	29396
1160.94	29555.5
1163.83	29774
1166.72	29970.9
1169.62	30154.3
1172.51	30376.4
1175.4	30548.6
1178.3	30765.3
1181.19	30936.2
1184.08	31152.5
1186.97	31334.4
1189.87	31571.3
1192.76	31743.1
1195.65	31939.9
1198.54	32128
1201.44	32309.5
1204.33	32424.8
1207.22	32727.7
1210.11	32916.2
1213.01	33100
1215.9	33300.2
1218.79	33499
1221.68	33685.9
1224.58	33780.7
1227.47	34024.2
1230.36	34261.2
1233.26	34500
1236.15	34616
1239.04	34800.1
1241.93	34917.7
1244.83	35179.2
1247.72	35496.1
1250.61	35621.2
1253.51	35847.4
1256.4	36128.6
1259.29	36341.1
1262.18	36653.6
1265.08	36860.5
1267.97	37112.6
1270.86	37443.2
1273.75	37640.2
1276.65	37868.3
1279.54	38156.2
1282.43	38404.8
1285.33	38650.7
