Measurement: Raman, 532 nm, unoriented, Raman Data Processed
Mineral: Rhodarsenide
Rruff sample: R070074
Ideal chemistry: Rh_2_As
Locality: Miass River, Urals, Russia
Source: Michael Scott
Description: Dark gray metallic inclusion in sperrylite and Os,Ir,Ru matrix. The sample is a polished fragment embedded in epoxy
Measured chemistry: dark inclusion in the gray phase: (Rh_1.52_Pt_0.19_Pd_0.17_Ni_0.10_Ru_0.01_Cu_0.01_)_Î£=2_As_1.00_
Raman shift (cm-1)	intensity
198.876	0
201.769	21.2773
204.661	49.9524
207.554	49.772
210.447	1.32227
213.339	54.7805
216.232	3.07568
219.125	31.1284
222.018	23.9436
224.91	47.6045
227.803	57.1619
230.696	26.2415
233.588	51.9048
236.481	12.1934
239.374	18.741
242.266	63.2542
245.159	58.4351
248.052	26.3945
250.945	14.3618
253.837	35.3599
256.73	11.6304
259.623	36.9504
262.515	75.2898
265.408	51.4407
268.301	68.5034
271.193	62.5801
274.086	41.6223
276.979	47.7996
279.872	40.052
282.764	86.8608
285.657	30.4404
288.55	18.4902
291.442	34.6665
294.335	33.4465
297.228	39.572
300.12	38.0156
303.013	58.4744
305.906	4.29199
308.798	32.8394
311.691	42.3523
314.584	37.429
317.477	41.1216
320.369	22.603
323.262	53.6858
326.155	43.3574
329.047	23.6465
331.94	7.21143
334.833	13.3569
337.725	3.38525
340.618	12.4473
343.511	31.5005
346.404	29.102
349.296	3.34961
352.189	48.3162
355.082	25.385
357.974	21.7048
360.867	17.7454
363.76	18.9468
366.652	108.059
369.545	12.7546
372.438	19.7078
375.33	38.4204
378.223	26.0735
381.116	45.1145
384.009	15.0256
386.901	11.4744
389.794	65.2561
392.687	48.7978
395.579	60.1826
398.472	23.8887
401.365	34.2866
404.257	42.9443
407.15	11.9219
410.043	1.2749
412.936	21.9209
415.828	59.396
418.721	19.0894
421.614	48.1636
424.506	0.344727
427.399	4.9043
430.292	36.1445
433.184	56.0029
436.077	8.60596
438.97	50.0034
441.863	113.185
444.755	39.3667
447.648	28.064
450.541	101.876
453.433	30.1631
456.326	36.2373
459.219	67.9858
462.111	29.898
465.004	41.2793
467.897	26.397
470.789	16.6064
473.682	41.4858
476.575	68.3428
479.468	50.7905
482.36	57.8018
485.253	28.6992
488.146	6.14209
491.038	47.144
493.931	8.5293
496.824	23.5869
499.716	59.9228
502.609	77.2651
505.502	49.4346
508.395	61.9556
511.287	54.9648
514.18	86.645
517.073	113.815
519.965	43.6138
522.858	68.1987
525.751	61.7739
528.644	20.0903
531.536	30.6958
534.429	9.08008
537.322	34.8159
540.214	19.6074
543.107	5.42383
546	19.2549
548.892	65.7959
551.785	59.6465
554.678	39.9512
557.57	20.7651
560.463	35.854
563.356	5.58252
566.249	31.0767
569.141	26.9936
572.034	76.3979
574.927	65.0093
577.819	10.04
580.712	42.7036
583.605	9.58984
586.497	25.4932
589.39	10.9116
592.283	1.83252
595.176	12.4585
598.068	8.56982
600.961	24.6118
603.854	72.6187
606.746	51.2515
609.639	56.8384
612.532	82.1929
615.424	48.8047
618.317	14.1792
621.21	39.374
624.102	122.335
626.995	58.063
629.888	87.1016
632.781	106.661
635.673	42.4546
638.566	90.7676
641.459	100.836
644.351	100.586
647.244	127.388
650.137	103.284
653.029	72.0298
655.922	97.4688
658.815	109.06
661.708	62.6655
664.6	80.4302
667.493	77.2944
670.386	49.4487
673.278	81.356
676.171	20.0142
679.064	82.8003
681.956	50.7398
684.849	1.23584
687.742	43.5459
690.635	58.9453
693.527	55.4213
696.42	31.9979
699.313	54.8278
702.205	34.4279
705.098	25.2838
707.991	35.275
710.883	54.9822
713.776	45.6108
716.669	9.5459
719.562	78.9663
722.454	76.9038
725.347	17.2222
728.24	91.5469
731.132	43.4644
734.025	72.2256
736.918	13.3232
739.81	40.7398
742.703	56.9302
745.596	92.7026
748.489	50.9512
751.381	53.1362
754.274	74.2134
757.167	14.2583
760.059	24.5112
762.952	64.1724
765.845	50.7441
768.737	17.0986
771.63	8.80615
774.523	32.1968
777.415	70.4888
780.308	62.77
783.201	24.2671
786.094	19.1226
788.986	43.7231
791.879	18.2036
794.772	49.6997
797.664	71.2974
800.557	49.501
803.45	89.8731
806.342	60.0552
809.235	41.7339
812.128	9.64014
815.02	12.6977
817.913	16.5933
820.806	37.375
823.699	9.66943
826.591	61.9048
829.484	12.3491
832.377	52.3657
835.269	56.9868
838.162	6.01856
841.055	28.0122
843.947	11.6577
846.84	36.1914
849.733	20.0605
852.626	78.6997
855.518	70.1733
858.411	67.855
861.304	51.7568
864.196	25.52
867.089	76.4556
869.982	52.5933
872.875	25.041
875.767	46.0298
878.66	54.4185
881.553	45.165
884.445	58.4941
887.338	20.4185
890.231	8.00342
893.123	16.7876
896.016	8.89258
898.909	24.9756
901.802	17.647
904.694	39.8477
907.587	14.0913
910.48	55.7666
913.372	51.4019
916.265	54.3535
919.158	112.465
922.05	51.3281
924.943	54.4341
927.836	7.11133
930.728	15.4048
933.621	11.9404
936.514	27.0146
939.407	17.5005
942.299	56.2612
945.192	23.5298
948.085	2.51758
950.977	53.0933
953.87	36.5615
956.763	48.8623
959.655	56.7803
962.548	36.0312
965.441	71.1099
968.333	7.05469
971.226	39.2622
974.119	56.4912
977.012	51.5464
979.904	34.1172
982.797	110.311
985.69	13.7222
988.582	26.1514
991.475	11.3359
994.368	47.1816
997.26	45.4453
1000.15	49.27
1003.05	63.5537
1005.94	50.0151
1008.83	59.8164
1011.72	57.9341
1014.62	74.0147
1017.51	82.8769
1020.4	62.1245
1023.29	49.6343
1026.19	86.1738
1029.08	63.9385
1031.97	31.2983
1034.87	72.2485
1037.76	33.0239
1040.65	97.3687
1043.54	47.2373
1046.44	5.09961
1049.33	52.6421
1052.22	28.7227
1055.11	62.166
1058.01	24.6206
1060.9	36.5234
1063.79	40.8838
1066.68	31.7119
1069.58	34.2256
1072.47	72.7041
1075.36	55.3765
1078.26	45.3154
1081.15	58.603
1084.04	83.3384
1086.93	76.1773
1089.83	53.0332
1092.72	28.4932
1095.61	22.7056
1098.51	90.3726
1101.4	72.8257
1104.29	45.5864
1107.18	51.9175
1110.08	18.9634
1112.97	26.1792
1115.86	42.1616
1118.75	60.4453
1121.65	54.583
1124.54	19.8423
1127.43	84.0381
1130.33	50.7549
1133.22	49.8652
1136.11	15.1621
1139	39.6753
1141.89	26.3945
1144.79	42.1851
1147.68	31.0923
1150.57	5.20703
1153.47	30.3784
1156.36	59.4482
1159.25	26.376
1162.14	99.2192
1165.04	58.0342
1167.93	29.6436
1170.82	102.062
1173.71	39.9863
1176.61	93.6958
1179.5	92.3345
1182.39	72.645
1185.29	44.8184
1188.18	38.8726
1191.07	62.4653
1193.96	57.9849
1196.86	57.4951
1199.75	6.37158
1202.64	21.0928
1205.54	89.897
1208.43	0.43457
1211.32	104.733
1214.21	80.4277
1217.11	44.1338
1220	79.2129
1222.89	5.72266
1225.78	43.7383
1228.68	60.0684
1231.57	38.3628
1234.46	33.5898
1237.35	30.3706
1240.25	28.1255
1243.14	50.2886
1246.03	27.4116
1248.92	91.4536
1251.82	85.7017
1254.71	70.8975
1257.6	60.9653
1260.5	34.73
1263.39	38.3096
1266.28	45.5884
1269.17	57.9995
1272.07	59.2876
1274.96	69.0781
1277.85	110.651
1280.74	64.02
1283.64	3.09668
1286.53	71.626
1289.42	42.4292
1292.32	4.43213
1295.21	42.9111
1298.1	98.0972
1300.99	70.1821
1303.89	32.1714
1306.78	19.1738
