Measurement: Raman, 780 nm, unoriented, Raman Data RAW
Mineral: Richterite
Rruff sample: R100069
Ideal chemistry: Na(CaNa)Mg_5_Si_8_O_22_(OH)_2_
Locality: La Ceila, near Jumilla, Murcia Province, Spain
Source: Bob Jenkins
Description: Yellow transparent bladed crystals associated with yuanfuliite R100067 and black tabular hematite
Raman shift (cm-1)	intensity
91.5332	21664.4
94.908	22643.7
98.2828	22639.7
101.658	22167.1
105.032	22112.7
108.407	22148.2
111.782	22233.3
115.157	22291.3
118.532	22396.3
121.907	22417.8
125.281	22558.7
128.656	22675.2
132.031	22774.2
135.406	22894.8
138.781	22970.8
142.155	23131.9
145.53	23338.4
148.905	23489.9
152.28	23575.1
155.655	23721.7
159.03	23875.9
162.404	23945.8
165.779	24051.9
169.154	24109.9
172.529	24199.4
175.904	24273.7
179.278	24401.7
182.653	24495
186.028	24640.2
189.403	24776
192.778	24851.6
196.153	24968.3
199.527	25052.2
202.902	25157.3
206.277	25287.9
209.652	25405.6
213.027	25529.3
216.401	25578.1
219.776	25732.4
223.151	25830.2
226.526	25970.1
229.901	26066.8
233.275	26147.4
236.65	26237.8
240.025	26356.7
243.4	26447
246.775	26546.8
250.15	26657.7
253.524	26756
256.899	26797.5
260.274	26965.2
263.649	27056.8
267.024	27161.8
270.399	27276.2
273.773	27340.1
277.148	27464.7
280.523	27598.8
283.898	27718.6
287.273	27757.2
290.647	27972.5
294.022	28003
297.397	28104.1
300.772	28197.7
304.147	28325.2
307.522	28439.1
310.896	28576.5
314.271	28636.8
317.646	28777.3
321.021	28882.8
324.396	29018.1
327.77	29211.1
331.145	29237.4
334.52	29375.8
337.895	29591.5
341.27	29696.3
344.644	29748.5
348.019	29897
351.394	29959.2
354.769	30038.4
358.144	30235.3
361.519	30334.1
364.893	30409.8
368.268	30519.1
371.643	30621.6
375.018	30643.4
378.393	30677
381.767	30794.9
385.142	30879.6
388.517	31031.7
391.892	31112.1
395.267	31317.8
398.642	31425
402.016	31525
405.391	31705.5
408.766	31800.4
412.141	31946.6
415.516	32011.1
418.89	32044.3
422.265	32168.6
425.64	32308.5
429.015	32455.9
432.39	32599
435.765	32677.9
439.139	32805.5
442.514	32914.8
445.889	33009
449.264	33133.5
452.639	33258
456.014	33320.8
459.388	33437
462.763	33621.4
466.138	33712.8
469.513	33861.2
472.887	33949.7
476.262	34113.9
479.637	34110.2
483.012	34246.2
486.387	34338.1
489.762	34419.1
493.136	34524.7
496.511	34652.6
499.886	34703.5
503.261	34771.1
506.636	34865.6
510.01	34965.8
513.385	35014.6
516.76	35146.6
520.135	35216.3
523.51	35338.5
526.885	35439.1
530.259	35571.2
533.634	35701.3
537.009	35767.4
540.384	35902.3
543.759	35943.3
547.134	36065
550.508	36167.6
553.883	36386.3
557.258	36496.4
560.633	36627.6
564.008	36731
567.382	36854.1
570.757	36977.9
574.132	36995.3
577.507	37206.3
580.882	37293.3
584.256	37382.1
587.631	37526.9
591.006	37661.8
594.381	37715.2
597.756	37904.6
601.131	37937.5
604.505	38071.5
607.88	38168.2
611.255	38400.9
614.63	38471.1
618.005	38612
621.38	38684.2
624.754	38811.2
628.129	38963.3
631.504	39114.8
634.879	39319.9
638.254	39418.4
641.628	39503.1
645.003	39596.2
648.378	39679.4
651.753	39730.9
655.128	39834.1
658.503	40012.9
661.877	40173
665.252	40305.3
668.627	40479.2
672.002	40636.8
675.377	40785.8
678.751	40902.7
682.126	41038.8
685.501	41123.8
688.876	41204.8
692.251	41278.2
695.625	41444.3
699	41533.5
702.375	41764.7
705.75	41766.4
709.125	41962.7
712.5	42085.8
715.874	42298.2
719.249	42388.4
722.624	42500.2
725.999	42636.6
729.374	42757.4
732.749	42831.9
736.123	42987.6
739.498	43086.6
742.873	43236.9
746.248	43380
749.623	43530
752.997	43632.1
756.372	43764.6
759.747	43914.7
763.122	44078.3
766.497	44141.4
769.871	44209.9
773.246	44391.3
776.621	44520.6
779.996	44664.2
783.371	44803
786.745	44963.7
790.12	45137.8
793.495	45342.1
796.87	45470.6
800.245	45578.8
803.62	45587.2
806.994	45973.5
810.369	45985
813.744	46010.8
817.119	46348.9
820.494	46456.4
823.869	46666.7
827.243	46705.6
830.618	46846.4
833.993	46954.2
837.368	47145.9
840.743	47312.8
844.117	47434.1
847.492	47646.5
850.867	47721.4
854.242	47901.5
857.617	48010.3
860.991	48130.5
864.366	48248.1
867.741	48326.3
871.116	48511.5
874.491	48615.7
877.866	48740.4
881.24	48943.6
884.615	49095.9
887.99	49139
891.365	49155.2
894.74	49484.4
898.115	49499.4
901.489	49599.6
904.864	49670.8
908.239	49819
911.614	49926.4
914.989	50181.2
918.363	50457
921.738	50521.5
925.113	50649.2
928.488	50772.9
931.863	50978.8
935.237	51062.5
938.612	51266.4
941.987	51376.3
945.362	51588.4
948.737	51764.4
952.112	51938.4
955.486	52010.6
958.861	52112.2
962.236	52295.1
965.611	52427.7
968.986	52589.8
972.361	52847.9
975.735	52963.5
979.11	53033.6
982.485	53227.6
985.86	53426.4
989.235	53623.5
992.609	53744.9
995.984	54006.5
999.359	54140.3
1002.73	54235.3
1006.11	54375.4
1009.48	54530.4
1012.86	54676.9
1016.23	54874.7
1019.61	55069.6
1022.98	55280.5
1026.36	55535.5
1029.73	55600.4
1033.11	55802.8
1036.48	56097
1039.86	56130.8
1043.23	56310.6
1046.61	56555.3
1049.98	56759.3
1053.36	56762.7
1056.73	56858.1
1060.11	56947.2
1063.48	57123
1066.86	57365.1
1070.23	57481.6
1073.61	57643.5
1076.98	57892.6
1080.36	58043.2
1083.73	58146.3
1087.1	58360.5
1090.48	58509.1
1093.85	58611.8
1097.23	58661.2
1100.6	58912.6
1103.98	59098.8
1107.35	59326.1
1110.73	59560
1114.1	59628.6
1117.48	59804.5
1120.85	59987.7
1124.23	60228.5
1127.6	60394.7
1130.98	60476.6
1134.35	60634.6
1137.73	60778.2
1141.1	61059.3
1144.48	61179.1
1147.85	61389.6
1151.23	61467.5
1154.6	61634.6
1157.97	61777.4
1161.35	62048.8
1164.72	62125.2
1168.1	62353.6
1171.47	62498.4
1174.85	62834.2
1178.22	62913.4
1181.6	63156.6
1184.97	63223.6
1188.35	63434.1
1191.72	63719.5
1195.1	63845.9
1198.47	63927.1
1201.85	64057.2
1205.22	64216.9
1208.6	64395
1211.97	64617.8
1215.35	64796.9
1218.72	64826.8
1222.1	64861.5
1225.47	65295.2
1228.85	65445.6
1232.22	65606.5
1235.6	65846.2
1238.97	65805.5
1242.35	65930.6
1245.72	66186.4
1249.1	66407.1
1252.47	66606.2
1255.85	66777.6
1259.22	67094.3
1262.6	67206.7
1265.97	67373.1
1269.34	67496
1272.72	67764.1
1276.09	67972.1
1279.47	68275
1282.84	68615.2
