Measurement: Raman, 780 nm, unoriented, Raman Data Processed
Mineral: Ringwoodite
Rruff sample: R090003
Ideal chemistry: Mg_2_SiO_4_
Locality: Synthetic
Source: Hexiong Yang
Description: Colorless crystals
Raman shift (cm-1)	intensity
108.729	0
112.104	3.68408
115.478	19.3271
118.853	24.8203
122.228	27.9136
125.603	29.7417
128.978	0.192383
132.353	4.76367
135.727	6.56445
139.102	10.0586
142.477	9.00146
145.852	12.1392
149.227	10.478
152.601	30.4014
155.976	26.1626
159.351	22.2314
162.726	24.8872
166.101	34.2651
169.476	20.9936
172.85	6.97754
176.225	5.95068
179.6	6.0918
182.975	16.4351
186.35	23.1782
189.725	27.4536
193.099	27.2637
196.474	34.0796
199.849	39.5596
203.224	23.0513
206.599	31.375
209.973	24.3804
213.348	29.2773
216.723	26.2993
220.098	21.1641
223.473	16.3921
226.847	20.9136
230.222	40.0054
233.597	24.1475
236.972	28.1377
240.347	39.4507
243.722	18.377
247.096	32.0923
250.471	37.5767
253.846	26.5825
257.221	2.93506
260.596	21.8618
263.971	39.1191
267.345	16.6289
270.72	8.40088
274.095	2.42334
277.47	2.17773
280.845	18.4927
284.219	23.7593
287.594	20.2749
290.969	21.103
294.344	26.8232
297.719	8.73242
301.094	23.999
304.468	11.9639
307.843	0.658691
311.218	8.67383
314.593	3.26074
317.968	6.69531
321.342	9.67188
324.717	12.2051
328.092	1.95557
331.467	12.2646
334.842	0.00293
338.216	7.13184
341.591	19.8975
344.966	17.4487
348.341	19.9458
351.716	19.8604
355.091	6.19873
358.465	23.6421
361.84	13.5288
365.215	15.6201
368.59	16.7739
371.965	33.146
375.339	18.564
378.714	8.69775
382.089	0.594238
385.464	3.68945
388.839	9.8501
392.214	5.71875
395.588	1.29443
398.963	12.4829
402.338	9.64453
405.713	14.4331
409.088	20.5049
412.462	12.9829
415.837	7.10352
419.212	14.7437
422.587	24.2959
425.962	13.7539
429.337	16.6851
432.711	22.9419
436.086	24.9756
439.461	25.0845
442.836	13.4854
446.211	9.68604
449.586	13.0771
452.96	14.1509
456.335	14.729
459.71	19.1055
463.085	31.4907
466.46	23.873
469.834	15.5244
473.209	1.71094
476.584	20.479
479.959	16.1538
483.334	31.1025
486.709	28.5415
490.083	20.0454
493.458	20.2324
496.833	27.8198
500.208	24.5322
503.583	9.35449
506.957	22.9927
510.332	27.0254
513.707	19.7725
517.082	25.6987
520.457	8.30127
523.832	11.5102
527.206	2.71631
530.581	1.93994
533.956	6.74463
537.331	5.18018
540.706	2.93066
544.08	0.978027
547.455	15.5576
550.83	3.53125
554.205	5.98096
557.58	16.9038
560.955	16.394
564.329	15.5894
567.704	6.36328
571.079	21.2602
574.454	13.8394
577.829	23.5342
581.203	25.6865
584.578	29.2993
587.953	26.2021
591.328	15.252
594.703	29.7227
598.078	31.5371
601.452	23.3008
604.827	38.2925
608.202	28.77
611.577	13.8901
614.952	16.0962
618.327	17.0151
621.701	15.1494
625.076	33.9492
628.451	16.9922
631.826	33.2402
635.201	22.8384
638.575	27.9087
641.95	29.3423
645.325	37.6328
648.7	25.1025
652.075	18.9053
655.449	15.2529
658.824	11.165
662.199	27.502
665.574	24.9824
668.949	30.4751
672.323	22.9683
675.698	15.3062
679.073	7.71729
682.448	8.31641
685.823	23.562
689.198	16.7573
692.572	0.648438
695.947	23.3335
699.322	8.23242
702.697	20.4165
706.072	9.62744
709.447	24.8686
712.821	17.0327
716.196	8.71338
719.571	17.7466
722.946	0.131836
726.321	15.332
729.696	5.01025
733.07	33.0591
736.445	8.84082
739.82	7.2207
743.195	19.2905
746.57	11.3359
749.944	20.3569
753.319	21.8115
756.694	0.651855
760.069	0.694824
763.444	2.72217
766.818	6.3916
770.193	28.146
773.568	22.4165
776.943	5.10205
780.318	24.6055
783.693	32.084
787.067	50.2642
790.442	65.7305
793.817	79.938
797.192	88.0195
800.567	48.8779
803.942	32.2661
807.316	51.834
810.691	40.6226
814.066	49.896
817.441	47.4805
820.816	60.0625
824.19	72.6977
827.565	72.6011
830.94	65.1348
834.315	55.9429
837.69	57.106
841.064	67.4985
844.439	52.9048
847.814	41.0376
851.189	32.3164
854.564	43.6499
857.939	42.0564
861.313	37.7134
864.688	27.5225
868.063	17.0166
871.438	10.8047
874.813	13.9028
878.188	19.2207
881.562	6.81494
884.937	28.6846
888.312	19.3189
891.687	10.4634
895.062	12.5161
898.436	8.21729
901.811	19.5474
905.186	14.8018
908.561	10.147
911.936	13.2778
915.311	2.97705
918.685	10.8018
922.06	27.1577
925.435	9.85449
928.81	13.252
932.185	15.9058
935.559	41.6821
938.934	19.7124
942.309	26.418
945.684	29.2935
949.059	28.9898
952.433	20.6069
955.808	20.6831
959.183	15.6362
962.558	11.4683
965.933	18.5386
969.308	19.4253
972.682	7.80078
976.057	8.35693
979.432	3.45557
982.807	1.09619
986.182	6.72998
989.557	3.58398
992.931	11.3545
996.306	14.1646
999.681	14.9629
1003.06	17.3916
1006.43	22.5654
1009.8	17.5586
1013.18	20.4697
1016.55	24.0845
1019.93	42.271
1023.3	39.4404
1026.68	16.7393
1030.05	18.6733
1033.43	44.812
1036.8	30.8672
1040.18	44.0581
1043.55	28.9878
1046.93	46.7935
1050.3	39.853
1053.68	30.6885
1057.05	32.686
1060.43	57.0366
1063.8	52.1792
1067.18	32.3472
1070.55	47.4849
1073.93	43.9536
1077.3	35.9145
1080.68	29.2979
1084.05	40.5767
1087.43	36.1802
1090.8	36.0552
1094.18	33.3877
1097.55	12.7637
1100.93	6.76807
1104.3	19.9121
1107.67	2.35156
1111.05	30.98
1114.42	1.29639
1117.8	7.31543
1121.17	6.55957
1124.55	17.936
1127.92	10.6343
1131.3	28.7998
1134.67	10.3804
1138.05	4.22607
1141.42	35.8657
1144.8	48.1328
1148.17	35.7129
1151.55	19.2207
1154.92	25.4443
1158.3	24.25
1161.67	24.6089
1165.05	25.2476
1168.42	29.9541
1171.8	29.1162
1175.17	30.8027
1178.55	41.7573
1181.92	61.0147
1185.3	24.9614
1188.67	12.4351
1192.05	22.8115
1195.42	22.1304
1198.8	25.9316
1202.17	30.3428
1205.55	20.3667
1208.92	15.9695
1212.3	21.6248
1215.67	18.3528
1219.04	2.02441
1222.42	2.72656
1225.79	10.9202
1229.17	22.7578
1232.54	0.758545
1235.92	4.33643
1239.29	16.5918
1242.67	8.8623
1246.04	9.32373
1249.42	31.8496
1252.79	12.9312
1256.17	1.69751
1259.54	12.8379
1262.92	35.3513
1266.29	26.1738
1269.67	13.5938
1273.04	0.391113
1276.42	8.96802
1279.79	13.9219
1283.17	8.99878
1286.54	3.49243
