Measurement: Raman, 514 nm, unoriented, Raman Data Processed
Mineral: Rinkite-(Ce)
Rruff sample: R050229
Ideal chemistry: (Ca_3_Ce^3+^)Na(NaCa)Ti^4+^(Si_2_O_7_)_2_(OF)F_2_
Locality: Kipawa alkaline complex, near Sheffield Lake, Villedieu Township, Temiscamingue County, Quebec, Canada
Source: Marcus Origlieri
Description: Aggregate of coarsely crystalline yellowish-gray crystals associated with red eudialyte R050230
Raman shift (cm-1)	intensity
139.243	0
143.401	2.311
147.557	325.852
151.711	105.764
155.863	26.693
160.013	100.213
164.161	263.963
168.308	311.961
172.452	590.857
176.594	607.928
180.734	567.736
184.872	466.078
189.008	195.008
193.143	197.334
197.275	483.123
201.405	587.928
205.534	832.17
209.66	1097.42
213.784	1127.18
217.907	1507.08
222.027	1438.21
226.146	1793.39
230.263	1713.92
234.377	1821.12
238.49	1521.92
242.601	1787.7
246.709	1846.39
250.816	1622.49
254.921	1683.27
259.024	1690.81
263.125	1604.16
267.224	1823.64
271.321	2064.96
275.416	2022.14
279.51	2200.66
283.601	2690.18
287.69	2739.56
291.778	2957.41
295.863	2824.75
299.947	3108.8
304.029	3249.59
308.108	3184.37
312.186	3492.5
316.262	3811.85
320.336	3630.55
324.408	3822.99
328.478	3696.33
332.546	3938.47
336.612	3807.69
340.677	3756.69
344.739	3523.43
348.799	3280.42
352.858	3280.76
356.915	3441.64
360.969	3649.11
365.022	3809.39
369.073	3976.14
373.122	3585.6
377.169	3473.2
381.215	3230.98
385.258	3193.35
389.299	2749.97
393.339	2704.19
397.376	2819.35
401.412	2334.61
405.446	2389.64
409.478	1867.69
413.508	1454.04
417.536	1318.19
421.562	1220.03
425.586	927.867
429.609	694.746
433.629	802.689
437.648	364.709
441.665	363.816
445.68	214.014
449.693	119.288
453.704	335.182
457.713	74.154
461.721	474.511
465.726	35.52
469.73	22.453
473.731	413.812
477.731	204.583
481.729	110.363
485.725	24.929
489.72	9.032
493.712	49.604
497.703	210.468
501.691	174.517
505.678	32.655
509.663	90.003
513.646	132.666
517.627	88.62
521.607	21.594
525.584	130.231
529.56	207.938
533.534	15.653
537.506	175.619
541.476	49.149
545.444	155.768
549.41	4.772
553.375	147.837
557.337	164.856
561.298	50.736
565.257	147.911
569.214	324.041
573.17	341.102
577.123	570.064
581.075	908.668
585.024	1016.48
588.972	1391.79
592.918	1523.95
596.863	1438.63
600.805	1046.95
604.746	877.771
608.685	560.381
612.621	258.494
616.557	144.072
620.49	158.387
624.421	137.98
628.351	260.637
632.279	307.027
636.205	257.531
640.129	464.738
644.051	856.803
647.972	1138.27
651.89	1455.21
655.807	2338.59
659.722	2923.14
663.636	3146.23
667.547	2810.48
671.457	2117.14
675.365	1500.28
679.271	879.357
683.175	686.107
687.077	500.34
690.978	255.318
694.877	464.021
698.774	278.051
702.669	426.998
706.562	578.893
710.454	616.752
714.344	657.691
718.232	769.064
722.118	1136.26
726.002	1273.4
729.885	1581.15
733.766	1891.5
737.645	2501.64
741.522	2724.33
745.397	3505.47
749.271	3884.75
753.143	4097.24
757.013	4410.11
760.881	4897.82
764.748	4884.11
768.613	5054.69
772.476	5052.31
776.337	5514.9
780.196	5475.83
784.054	5556.72
787.91	5442.38
791.764	5509.34
795.616	5947.6
799.467	5390.76
803.316	5229.23
807.163	5662.72
811.008	5514.43
814.851	5515.47
818.693	5384.82
822.533	5137.63
826.371	4881.91
830.208	4840.61
834.042	4327.67
837.875	4533.5
841.706	4454.33
845.536	4213.8
849.363	3702.66
853.189	3465.14
857.013	3535.77
860.836	2800.77
864.656	2423.24
868.475	1584.2
872.292	1034.7
876.108	280.812
879.922	24.76
883.733	543.117
887.544	811.143
891.352	1059.95
895.159	1152.48
898.964	870.055
902.767	846.826
906.568	367.943
910.368	369.76
914.166	583.33
917.962	582.945
921.757	1225.7
925.55	1557.74
929.341	1732.19
933.13	1600.37
936.918	1995.47
940.703	2460.44
944.488	2912.7
948.27	3135.58
952.051	2602.72
955.83	2260.62
959.607	2069.35
963.383	1962.93
967.156	2231.43
970.928	2523.9
974.699	2723.38
978.468	3308.92
982.234	3551.56
986	4381.35
989.763	4924.35
993.525	5822.6
997.285	6954.16
1001.04	8655.18
1004.8	10098.7
1008.55	11883.6
1012.31	13870
1016.06	15183.9
1019.81	16132.3
1023.56	16793.4
1027.31	17050.9
1031.05	17239.3
1034.79	17285.7
1038.53	16799.1
1042.27	16844.9
1046.01	17077.8
1049.75	17399
1053.48	17795.3
1057.22	18159.6
1060.95	19746.6
1064.68	21344.5
1068.4	23084.2
1072.13	23401.5
1075.86	23037.7
1079.58	22443.6
1083.3	21182.6
1087.02	20584.8
1090.74	20266.2
1094.45	20249.6
1098.17	20795.3
1101.88	21233.1
1105.59	21631
1109.3	20854.7
1113.01	20238.1
1116.71	19448.3
1120.42	18318.3
1124.12	17726.9
1127.82	16766.2
1131.52	16131.1
1135.22	15116.5
1138.91	14909.4
1142.61	14183.7
1146.3	14210.4
1149.99	14093.6
1153.68	13667.4
1157.37	13752.6
1161.06	13495.4
1164.74	13517.3
1168.42	13373.5
1172.1	13032.3
1175.78	12790.2
1179.46	12114.4
1183.14	11894.3
1186.81	11044.9
1190.48	10430.9
1194.15	9641.13
1197.83	9328.14
1201.49	8244.92
1205.16	8190.85
1208.82	7878.69
1212.49	7101.56
1216.15	6484.99
1219.81	6066.6
1223.46	5339.45
1227.12	5030.72
1230.78	4899.92
1234.43	4410.56
1238.08	3956.86
1241.73	3636.42
1245.38	3226.09
1249.03	2954.67
1252.67	2682.05
1256.31	2455.73
1259.95	2318.95
1263.6	1985.71
1267.23	1811.85
1270.87	1428.28
1274.51	1382.84
1278.14	1359.57
1281.77	1253.13
1285.4	1271.18
1289.03	1331.21
1292.66	918.133
1296.28	859.193
1299.91	753.07
1303.53	607.295
1307.15	571.408
1310.77	426.314
1314.38	309.676
1318	188.713
1321.61	52.152
1325.23	119.525
1328.84	214.629
1332.45	123.57
1336.06	10.066
1339.66	112.656
1343.27	228.889
1346.87	416.961
1350.47	463.201
1354.07	336.814
1357.67	311.779
1361.26	279.916
1364.86	217.693
1368.45	322.217
1372.04	331.553
1375.63	462.504
1379.22	204.006
1382.81	178.715
1386.39	110.898
1389.98	253.404
1393.56	606.559
1397.14	918.352
1400.72	1237.8
1404.3	1207.07
1407.87	1305.5
1411.45	1504.31
1415.02	1932.27
1418.59	2144.84
1422.16	2396.9
1425.73	2737.04
1429.29	3143.45
1432.86	3157.16
1436.42	3481.12
1439.98	3425.13
1443.54	3145.45
1447.1	3256.03
1450.66	2901.77
1454.21	2947.46
1457.77	2920.98
1461.32	3222.2
1464.87	3072.98
1468.42	2696.03
1471.96	2781.37
1475.51	2294.38
1479.06	1840.81
1482.6	1588.28
1486.14	1558.06
1489.68	1258.12
1493.22	1246.77
1496.75	1022.51
1500.29	460.203
1503.82	122.152
1507.35	232.512
1510.88	16.875
1514.41	0
