Measurement: Raman, 785 nm, unoriented, Raman Data Processed
Mineral: Robinsonite
Rruff sample: R060970
Ideal chemistry: Pb^2+^_4_Sb^3+^_6_S^2-^_13_
Locality: Mala Zelezna, Zilinsky Kraj, Slovakia
Source: Michael Scott
Description: Mass of randomly oriented silvery-gray striated prismatic crystals
Raman shift (cm-1)	intensity
137.92	0
140.813	17.2424
143.705	355.583
146.598	978.634
149.491	1229.03
152.383	1086.59
155.276	845.661
158.169	783.304
161.062	892.272
163.954	1108.59
166.847	1259.81
169.74	1386.19
172.632	1314.54
175.525	1204.58
178.418	1155.51
181.31	1237.52
184.203	1312.41
187.096	1510.65
189.989	1667.05
192.881	1893.56
195.774	2183.51
198.667	2480.1
201.559	2751.18
204.452	2931.27
207.345	3084.37
210.238	3142.95
213.13	3099.65
216.023	2997.73
218.916	2804.43
221.808	2578.44
224.701	2375.38
227.594	2129.62
230.486	1945
233.379	1823.57
236.272	1653.33
239.164	1540.61
242.057	1414.1
244.95	1254.8
247.843	1100.68
250.735	995.805
253.628	794.909
256.521	707.412
259.413	582.037
262.306	432.881
265.199	295.731
268.091	163.142
270.984	111.783
273.877	26.1654
276.769	-12.5682
279.662	-10.2027
282.555	-11.8288
285.448	-3.55219
288.34	5.28799
291.233	84.6758
294.126	367.129
297.018	670.471
299.911	1131.88
302.804	1636.41
305.697	2117.78
308.589	2420.99
311.482	2417.54
314.375	2311.17
317.267	2013.63
320.16	1845.96
323.053	1776.17
325.945	1850.1
328.838	1877.54
331.731	1763.83
334.623	1531.37
337.516	1139.81
340.409	793.497
343.302	437.396
346.194	208.199
349.087	47.2988
351.98	52.5367
354.872	7.85022
357.765	25.411
360.658	16.6711
363.55	18.1755
366.443	38.8324
369.336	81.3732
372.229	68.6609
375.121	129.403
378.014	159.705
380.907	124.806
383.799	161.218
386.692	153.671
389.585	150.347
392.477	217.526
395.37	251.31
398.263	213.176
401.156	253.624
404.048	255.564
406.941	245.243
409.834	273.759
412.726	241.924
415.619	253.286
418.512	204.417
421.404	189.486
424.297	173.845
427.19	150.311
430.082	162.832
432.975	136.807
435.868	119.634
438.761	124.387
441.653	116.589
444.546	106.441
447.439	122.74
450.331	93.6172
453.224	82.104
456.117	72.6458
459.01	66.6589
461.902	83.0486
464.795	55.4407
467.688	74.8347
470.58	75.8774
473.473	70.195
476.366	25.5786
479.258	43.6371
482.151	16.2202
485.044	34.1138
487.937	39.4563
490.829	67.1594
493.722	48.2543
496.615	53.6654
499.507	31.5175
502.4	30.1923
505.293	36.2579
508.185	42.3743
511.078	26.066
513.971	37.4636
516.864	74.0897
519.756	68.5929
522.649	32.5657
525.542	34.0128
528.434	24.8921
531.327	1.09534
534.22	22.6238
537.112	37.4838
540.005	13.8182
542.898	72.8325
545.79	42.2835
548.683	15.0305
551.576	39.8652
554.469	31.7565
557.361	16.446
560.254	41.3838
563.147	49.6162
566.039	7.79736
568.932	2.63782
571.825	26.8945
574.717	18.9917
577.61	41.1394
580.503	18.3472
583.395	10.6123
586.288	9.82471
589.181	15.8619
592.074	17.686
594.966	0.780518
597.859	37.5298
600.752	33.9987
603.644	12.2728
606.537	34.2738
609.43	13.7185
612.322	19.8267
615.215	16.47
618.108	57.4817
621.001	71.1904
623.893	1.86609
626.786	50.8932
629.679	48.4429
632.571	28.8342
635.464	29.8298
638.357	43.773
641.25	29.8024
644.142	42.2846
647.035	21.8284
649.928	54.4247
652.82	21.2363
655.713	11.7048
658.606	19.0413
661.498	34.2042
664.391	7.1355
667.284	27.9171
670.177	29.168
673.069	36.3826
675.962	18.8302
678.855	60.3265
681.747	48.5106
684.64	12.2723
687.533	26.2924
690.425	27.5413
693.318	16.368
696.211	15.7476
699.104	25.4762
701.996	14.5261
704.889	13.5673
707.782	31.0981
710.674	48.8063
713.567	42.3953
716.46	25.2357
719.352	75.7113
722.245	53.3376
725.138	38.2611
728.03	22.0175
730.923	41.6399
733.816	46.2295
736.709	43.3486
739.601	42.0298
742.494	37.667
745.387	0.184937
748.279	55.8632
751.172	45.957
754.065	24.4923
756.957	54.55
759.85	59.2501
762.743	13.7676
765.635	22.71
768.528	23.7454
771.421	15.2546
774.314	44.5382
777.206	49.3518
780.099	41.5759
782.992	56.3513
785.884	66.1733
788.777	68.7294
791.67	16.2878
794.562	62.1904
797.455	39.5604
800.348	19.6467
803.241	22.5519
806.133	7.52905
809.026	38.8492
811.919	48.0591
814.811	61.2997
817.704	64.6655
820.597	20.7368
823.49	10.488
826.382	64.3321
829.275	26.6229
832.168	30.4663
835.06	20.7089
837.953	24.9699
840.846	7.81531
843.738	10.4132
846.631	3.59436
849.524	11.2128
852.416	10.7408
855.309	17.3208
858.202	16.4208
861.095	55.167
863.987	36.1974
866.88	36.4158
869.773	14.6126
872.665	33.5082
875.558	6.6958
878.451	19.3744
881.343	17.1255
884.236	14.2511
887.129	6.09473
890.021	23.5177
892.914	19.7119
895.807	23.5938
898.7	48.7487
901.592	6.10449
904.485	0.679321
907.378	35.9136
910.27	43.6625
913.163	30.2107
916.056	46.1919
918.948	76.3364
921.841	24.5724
924.734	4.83691
927.627	12.3683
930.519	28.7356
933.412	54.0204
936.305	76.4836
939.197	60.8832
942.09	46.6685
944.983	46.7648
947.875	47.4117
950.768	44.535
953.661	41.2375
956.554	74.9425
959.446	38.0866
962.339	74.2706
965.232	52.7617
968.124	46.5266
971.017	40.0772
973.91	43.2517
976.803	35.0715
979.695	78.7709
982.588	25.7604
985.481	27.5789
988.373	10.8427
991.266	37.9922
994.159	14.9553
997.051	42.3794
999.944	65.0574
1002.84	72.2533
1005.73	43.4978
1008.62	36.8374
1011.51	54.1738
1014.41	74.4485
1017.3	20.1508
1020.19	15.252
1023.09	1.93701
1025.98	7.98901
1028.87	26.8699
1031.76	42.4951
1034.66	47.8479
1037.55	42.5347
1040.44	78.124
1043.34	75.9937
1046.23	52.2643
1049.12	58.0637
1052.01	79.2499
1054.9	67.5889
1057.8	42.2116
1060.69	11.7239
1063.58	43.1642
1066.48	31.6194
1069.37	1.05493
1072.26	34.9829
1075.15	36.6975
1078.05	38.4711
1080.94	0.953857
1083.83	9.06274
1086.72	25.6171
1089.62	6.15039
1092.51	28.8005
1095.4	39.1287
1098.3	32.7258
1101.19	22.5994
1104.08	17.8426
1106.97	34.8728
1109.87	41.6764
1112.76	36.2318
1115.65	0.385376
1118.55	48.4565
1121.44	9.1814
1124.33	1.90552
1127.22	58.3739
1130.12	4.13708
1133.01	20.7836
1135.9	19.7106
1138.79	11.8456
1141.69	16.026
1144.58	17.182
1147.47	8.10107
1150.36	22.2905
1153.26	37.9197
1156.15	21.5554
1159.04	48.8479
1161.93	37.1764
1164.83	57.1085
1167.72	88.8962
1170.61	29.9369
1173.51	20.9346
1176.4	48.7361
1179.29	8.97534
1182.18	40.4011
1185.08	62.9017
1187.97	41.2339
1190.86	44.2516
1193.76	18.6709
1196.65	55.7251
1199.54	42.7378
1202.43	18.2701
1205.33	2.2782
1208.22	13.933
1211.11	48.7578
1214	54.6886
1216.9	83.9535
1219.79	74.6779
1222.68	35.65
1225.58	57.5889
1228.47	108.144
1231.36	99.4017
1234.25	50.1444
1237.14	1.05212
1240.04	59.741
1242.93	77.7059
1245.82	75.2032
1248.72	38.5789
1251.61	38.0823
1254.5	43.7815
1257.39	31.8084
1260.29	29.9353
1263.18	13.6609
