Measurement: Raman, 532 nm, unoriented, Raman Data Processed
Mineral: Robinsonite
Rruff sample: R060970
Ideal chemistry: Pb^2+^_4_Sb^3+^_6_S^2-^_13_
Locality: Mala Zelezna, Zilinsky Kraj, Slovakia
Source: Michael Scott
Description: Mass of randomly oriented silvery-gray striated prismatic crystals
Raman shift (cm-1)	intensity
112.844	0
116.219	4.60089
119.594	17.9879
122.969	116.907
126.343	107.085
129.718	98.1963
133.093	78.7613
136.468	103.095
139.843	174.423
143.217	148.838
146.592	150.239
149.967	124.289
153.342	109.153
156.717	143.808
160.091	156.925
163.466	163.242
166.841	149.533
170.216	154.112
173.591	124.851
176.965	126.106
180.34	139.733
183.715	141.471
187.09	88.8536
190.465	160.949
193.84	159.32
197.214	196.714
200.589	162.156
203.964	218.828
207.339	208.719
210.714	189.591
214.089	163.687
217.463	164.036
220.838	163.269
224.213	156.896
227.588	116.959
230.963	115.53
234.337	112.74
237.712	92.7079
241.087	111.582
244.462	93.9026
247.837	92.8987
251.212	35.1334
254.586	37.1921
257.961	44.011
261.336	14.3685
264.711	5.3949
268.086	15.5605
271.46	24.5978
274.835	21.3983
278.21	24.0102
281.585	6.11328
284.96	34.3401
288.334	24.2307
291.709	11.4193
295.084	25.9343
298.459	19.4508
301.834	86.4674
305.209	92.9915
308.583	132.694
311.958	113.552
315.333	113.26
318.708	127.896
322.083	128.647
325.457	153.571
328.832	165.918
332.207	151.201
335.582	93.8655
338.957	71.671
342.332	64.1814
345.706	25.8162
349.081	0.108917
352.456	1.94019
355.831	1.52441
359.206	3.00906
362.58	15.5046
365.955	29.1928
369.33	32.6469
372.705	24.5025
376.08	36.3431
379.454	24.2815
382.829	38.1392
386.204	53.8855
389.579	37.7087
392.954	59.3385
396.329	45.4877
399.703	43.6735
403.078	46.844
406.453	57.5355
409.828	47.0724
413.203	42.7719
416.577	54.3609
419.952	18.5966
423.327	22.2653
426.702	38.538
430.077	43.4468
433.452	20.9079
436.826	35.149
440.201	45.009
443.576	34.7638
446.951	38.8892
450.326	32.8004
453.7	10.8474
457.075	20.3381
460.45	40.6803
463.825	25.5149
467.2	30.0728
470.575	24.6027
473.949	50.779
477.324	28.3631
480.699	29.0842
484.074	28.7094
487.449	10.489
490.823	39.0478
494.198	14.5246
497.573	45.2369
500.948	19.9648
504.323	9.77182
507.697	0.297577
511.072	13.7508
514.447	5.46227
517.822	28.4068
521.197	36.3132
524.572	26.7977
527.946	4.42065
531.321	18.4063
534.696	11.9951
538.071	3.44495
541.446	18.0996
544.82	34.242
548.195	17.0037
551.57	14.2496
554.945	15.548
558.32	12.4374
561.694	4.5628
565.069	10.4323
568.444	4.52924
571.819	28.1245
575.194	6.9048
578.568	16.6618
581.943	26.7808
585.318	20.7963
588.693	3.53993
592.068	6.64439
595.443	22.9565
598.817	4.60861
602.192	32.1205
605.567	0.73024
608.942	38.8614
612.317	22.2893
615.692	15.65
619.066	15.8253
622.441	48.8881
625.816	23.1511
629.191	23.4177
632.566	22.6265
635.94	0.721588
639.315	20.0771
642.69	16.8814
646.065	21.452
649.44	28.6477
652.814	9.74078
656.189	7.22631
659.564	15.9996
662.939	35.3582
666.314	25.5085
669.688	12.3818
673.063	14.2567
676.438	23.444
679.813	9.686
683.188	16.401
686.563	21.1956
689.937	2.45121
693.312	35.8508
696.687	10.8756
700.062	42.6734
703.437	26.1375
706.812	23.6965
710.186	7.21782
713.561	29.0537
716.936	20.8134
720.311	29.0661
723.686	13.198
727.06	22.9734
730.435	20.5688
733.81	13.6121
737.185	13.753
740.56	19.1481
743.934	19.8376
747.309	14.7157
750.684	14.5683
754.059	23.0796
757.434	0.287033
760.809	14.8168
764.183	25.2652
767.558	8.47203
770.933	14.3204
774.308	25.3592
777.683	17.9709
781.057	4.75887
784.432	15.1604
787.807	35.8551
791.182	23.451
794.557	36.6696
797.932	33.4175
801.306	1.0312
804.681	15.274
808.056	30.8678
811.431	30.7346
814.806	17.1904
818.18	12.0144
821.555	1.1847
824.93	27.3486
828.305	16.8595
831.68	21.1478
835.054	11.5781
838.429	12.6662
841.804	45.4772
845.179	15.6525
848.554	1.9213
851.929	15.5443
855.303	14.1754
858.678	7.13661
862.053	4.77255
865.428	6.56222
868.803	32.2662
872.178	24.898
875.552	28.4082
878.927	5.91877
882.302	12.2583
885.677	19.2159
889.052	24.0418
892.426	22.8861
895.801	12.076
899.176	14.7766
902.551	18.926
905.926	13.3091
909.3	19.3552
912.675	19.966
916.05	5.09601
919.425	21.3713
922.8	22.9451
926.174	29.7865
929.549	13.0879
932.924	15.5254
936.299	25.8979
939.674	14.1598
943.049	21.6755
946.423	12.4677
949.798	31.421
953.173	36.5901
956.548	16.6223
959.923	22.2197
963.298	15.2467
966.672	39.4447
970.047	23.1311
973.422	20.5209
976.797	17.6217
980.172	20.7056
983.546	18.0561
986.921	35.0431
990.296	23.6663
993.671	10.4448
997.046	16.4663
1000.42	46.5656
1003.79	3.06827
1007.17	24.8885
1010.54	1.72089
1013.92	4.50653
1017.29	34.8605
1020.67	12.5368
1024.04	20.7427
1027.42	1.63433
1030.79	20.3264
1034.17	24.8176
1037.54	22.8879
1040.92	25.0315
1044.29	11.7441
1047.67	7.08152
1051.04	22.9325
1054.42	17.8264
1057.79	36.5896
1061.17	16.568
1064.54	29.4924
1067.92	7.87054
1071.29	31.4106
1074.67	25.2378
1078.04	45.6985
1081.42	20.9459
1084.79	19.3127
1088.17	31.6819
1091.54	33.1205
1094.91	19.0321
1098.29	25.9591
1101.66	34.2412
1105.04	32.0462
1108.41	35.3209
1111.79	29.4687
1115.16	37.2553
1118.54	27.2761
1121.91	11.2931
1125.29	9.66119
1128.66	33.3231
1132.04	14.2469
1135.41	18.3771
1138.79	43.9181
1142.16	24.1671
1145.54	25.7455
1148.91	11.3938
1152.29	16.2767
1155.66	19.5039
1159.04	30.8149
1162.41	12.3048
1165.79	14.6949
1169.16	10.34
1172.54	5.3333
1175.91	21.9898
1179.29	35.9813
1182.66	19.3572
1186.04	20.6192
1189.41	23.1699
1192.79	18.5892
1196.16	4.97318
1199.54	8.35738
1202.91	12.5635
1206.28	16.712
1209.66	19.9176
1213.03	25.2179
1216.41	10.5242
1219.78	15.4853
1223.16	28.718
1226.53	15.9699
1229.91	3.7142
1233.28	10.1177
1236.66	17.4612
1240.03	24.5526
1243.41	14.2027
1246.78	17.2497
1250.16	25.8082
1253.53	43.2883
1256.91	40.5339
1260.28	12.4915
1263.66	21.5928
1267.03	51.6529
1270.41	7.97335
1273.78	51.1608
1277.15	17.5189
1280.53	21.8289
1283.9	10.218
1287.28	9.73997
1290.65	0.237976
