Measurement: Raman, 780 nm, unoriented, Raman Data Processed
Mineral: Rockbridgeite
Rruff sample: R060858
Ideal chemistry: (Fe^2+^_0.5_Fe^3+^_0.5_)_2_Fe^3+^_3_(PO_4_)_3_(OH)_5_
Locality: Tip Top mine, Custer County, South Dakota, USA
Source: Marcus Origlieri
Description: Dark reddish brown elongated prismatic crystals associated with jahnsite-(CaMnMg), R060213
Measured chemistry: (Fe^2+^_0.62_Mn^2+^_0.33_Mg_0.05_)_Î£=1_Fe^3+^_4.00_(P_1.00_O_4_)_3_(OH)_5_; OH estimated by difference; Fe2+ and Fe3+ by charge balance
Raman shift (cm-1)	intensity
165.333	0
168.226	2.34171
171.119	2.12807
174.012	1.83595
176.904	3.66478
179.797	5.1429
182.69	5.91025
185.582	7.83609
188.475	4.59377
191.368	10.0234
194.261	5.93607
197.153	7.10355
200.046	3.3154
202.939	0.893066
205.831	4.27144
208.724	3.02535
211.617	3.33931
214.509	2.57126
217.402	5.65118
220.295	7.53857
223.188	8.79771
226.08	8.12474
228.973	9.33214
231.866	14.5755
234.758	19.4823
237.651	26.4852
240.544	39.3812
243.436	28.6545
246.329	22.6309
249.222	8.82488
252.114	6.62192
255.007	3.74525
257.9	5.66603
260.793	3.31183
263.685	1.20782
266.578	4.85442
269.471	7.14249
272.363	13.9559
275.256	14.9877
278.149	21.2255
281.041	30.3387
283.934	49.3601
286.827	64.458
289.719	53.8448
292.612	33.9033
295.505	17.1631
298.398	6.07146
301.29	8.11197
304.183	8.76213
307.076	0.400986
309.968	4.9801
312.861	4.97536
315.754	6.5486
318.647	5.85051
321.539	4.60147
324.432	3.5184
327.325	10.3434
330.217	12.3125
333.11	18.8592
336.003	19.2827
338.895	10.3631
341.788	5.81531
344.681	3.24442
347.574	1.11012
350.466	4.51683
353.359	5.56375
356.252	3.92709
359.144	4.73684
362.037	5.49899
364.93	8.7663
367.822	2.2824
370.715	7.01348
373.608	9.57056
376.5	9.93184
379.393	12.0165
382.286	4.83785
385.179	2.92761
388.071	6.679
390.964	2.4338
393.857	2.58323
396.749	3.69893
399.642	1.2766
402.535	1.1823
405.427	3.50429
408.32	5.35637
411.213	1.78361
414.106	4.82378
416.998	0.065392
419.891	6.88344
422.784	3.3512
425.676	5.0432
428.569	7.31515
431.462	8.53532
434.354	3.93857
437.247	9.90033
440.14	6.42556
443.033	3.17843
445.925	3.3587
448.818	5.13992
451.711	9.2331
454.603	10.5039
457.496	6.38983
460.389	12.2479
463.281	5.09519
466.174	8.88944
469.067	5.6089
471.959	7.81992
474.852	5.05539
477.745	6.01779
480.638	6.75787
483.53	3.78825
486.423	0.512802
489.316	3.74932
492.208	3.38088
495.101	2.53394
497.994	3.63107
500.887	3.12919
503.779	1.4609
506.672	5.35391
509.565	2.99702
512.457	1.17975
515.35	10.1283
518.243	2.70828
521.135	0.970985
524.028	4.93375
526.921	0.240074
529.813	0.033905
532.706	3.77081
535.599	3.35019
538.492	0.385529
541.384	4.32748
544.277	2.19418
547.17	4.86913
550.062	4.6824
552.955	3.50308
555.848	3.21753
558.74	4.89092
561.633	4.01144
564.526	2.30132
567.418	4.22113
570.311	2.12594
573.204	0.638008
576.097	9.45158
578.989	5.3971
581.882	2.80225
584.775	0.895126
587.667	2.12504
590.56	1.61395
593.453	0.24279
596.346	4.57807
599.238	2.87726
602.131	3.88496
605.024	0.369461
607.916	4.03864
610.809	7.02611
613.702	1.89901
616.594	4.18102
619.487	4.50507
622.38	7.81205
625.273	0.629257
628.165	2.78523
631.058	0.839394
633.951	1.28319
636.843	1.78727
639.736	0.642281
642.629	2.80921
645.521	5.56232
648.414	2.45664
651.307	5.95566
654.199	8.98637
657.092	12.9853
659.985	19.61
662.878	22.5539
665.77	18.7854
668.663	14.7745
671.556	7.27953
674.448	1.83248
677.341	0.742004
680.234	3.01583
683.126	1.43136
686.019	3.20106
688.912	3.28106
691.805	5.24062
694.697	3.22788
697.59	2.80681
700.483	4.41401
703.375	2.06505
706.268	2.71986
709.161	4.62798
712.053	3.0057
714.946	5.17314
717.839	2.75719
720.731	3.85527
723.624	3.05722
726.517	3.56475
729.41	1.49426
732.302	3.59737
735.195	3.04013
738.088	4.07641
740.98	4.82948
743.873	1.4196
746.766	6.53811
749.659	4.24802
752.551	3.38844
755.444	1.51002
758.337	3.33763
761.229	3.78357
764.122	5.05858
767.015	3.0304
769.907	0.898682
772.8	5.12168
775.693	5.31592
778.586	5.96423
781.478	1.70731
784.371	8.36997
787.264	2.00778
790.156	7.39004
793.049	3.83423
795.942	10.8951
798.834	10.9507
801.727	19.3324
804.62	26.8387
807.513	44.7649
810.405	69.0591
813.298	108.427
816.191	132.023
819.083	105.588
821.976	64.2795
824.869	33.018
827.761	18.3828
830.654	15.4949
833.547	9.53096
836.439	3.82719
839.332	7.7858
842.225	7.1307
845.118	7.16429
848.01	2.87267
850.903	5.59802
853.796	2.45126
856.688	2.98402
859.581	1.09434
862.474	0.392212
865.366	2.18117
868.259	1.57934
871.152	2.39124
874.044	3.70651
876.937	2.17431
879.83	3.25572
882.723	3.09115
885.615	2.67629
888.508	3.73225
891.401	1.15913
894.293	4.83781
897.186	4.73757
900.079	6.3371
902.971	0.952736
905.864	5.34443
908.757	7.31815
911.65	6.3994
914.542	2.01488
917.435	1.4552
920.328	6.35391
923.22	4.0592
926.113	2.5839
929.006	4.39894
931.899	6.0437
934.791	0.260086
937.684	2.23575
940.577	0.183678
943.469	4.30424
946.362	3.65301
949.255	6.37722
952.147	2.46385
955.04	4.87322
957.933	4.92525
960.825	6.39716
963.718	8.48598
966.611	3.79643
969.504	3.99737
972.396	3.63994
975.289	8.47055
978.182	7.21448
981.074	2.54076
983.967	9.47997
986.86	8.03511
989.752	22.1927
992.645	43.2126
995.538	24.0817
998.431	3.51537
1001.32	1.04461
1004.22	4.95297
1007.11	2.95384
1010	6.62357
1012.89	2.67049
1015.79	3.2761
1018.68	3.82146
1021.57	2.54461
1024.46	7.45731
1027.36	5.92428
1030.25	1.52468
1033.14	2.17735
1036.04	3.20281
1038.93	7.05521
1041.82	5.5878
1044.71	2.46668
1047.61	7.09512
1050.5	8.8476
1053.39	4.807
1056.29	4.64527
1059.18	2.57632
1062.07	6.76347
1064.96	6.01868
1067.86	5.46962
1070.75	1.30902
1073.64	4.86337
1076.53	1.33337
1079.43	9.65357
1082.32	4.95602
1085.21	3.38924
1088.1	4.32468
1091	3.61836
1093.89	0.375748
1096.78	6.79637
1099.67	4.03328
1102.57	8.07607
1105.46	6.7874
1108.35	7.12952
1111.25	4.36908
1114.14	6.14243
1117.03	7.13492
1119.92	3.87612
1122.82	0.036316
1125.71	2.94846
1128.6	7.33208
1131.49	10.6124
1134.39	4.38443
1137.28	5.21507
1140.17	0.625702
1143.07	3.72259
1145.96	2.41249
1148.85	6.71565
1151.74	0.586472
1154.64	0.076904
1157.53	5.29497
1160.42	0.93351
1163.31	2.3896
1166.21	6.26417
1169.1	5.18004
1171.99	5.74469
1174.88	2.65055
1177.78	7.27406
1180.67	2.1816
1183.56	4.48175
1186.46	6.37202
1189.35	3.23469
1192.24	0.861404
1195.13	4.7028
1198.03	4.84208
1200.92	2.39928
1203.81	4.72541
1206.7	5.80907
1209.6	7.67052
1212.49	9.02935
1215.38	2.14105
1218.28	9.26536
1221.17	5.79761
1224.06	6.80336
1226.95	2.16214
1229.85	3.87927
1232.74	1.94642
1235.63	5.22476
1238.53	4.92483
1241.42	2.04339
1244.31	6.04267
1247.2	6.12428
1250.1	5.88196
1252.99	2.55098
1255.88	7.26147
1258.77	2.53589
1261.67	1.90472
1264.56	3.20239
1267.45	6.96744
1270.34	8.96568
1273.24	1.35803
1276.13	4.89724
1279.02	4.59107
1281.91	3.1003
1284.81	0
