Measurement: Raman, 532 nm, unoriented, Raman Data Processed
Mineral: Rockbridgeite
Rruff sample: R070594
Ideal chemistry: (Fe^2+^_0.5_Fe^3+^_0.5_)_2_Fe^3+^_3_(PO_4_)_3_(OH)_5_
Locality: Llallagua, Bustillos, Potosi, Bolivia
Source: James Shigley
Description: Radiating aggregate of black bladed crystals associated with pyrite
Raman shift (cm-1)	intensity
145.03	0
147.923	61.7478
150.816	106.203
153.709	56.8404
156.601	76.0808
159.494	27.082
162.387	28.5926
165.279	33.4004
168.172	30.7814
171.065	83.9503
173.958	82.8956
176.85	120.609
179.743	141.112
182.636	100.487
185.528	70.2566
188.421	59.1215
191.314	63.6005
194.206	27.5857
197.099	0.826782
199.992	3.13635
202.885	26.4883
205.777	22.4036
208.67	16.477
211.563	8.4104
214.455	52.3639
217.348	122.041
220.241	114.716
223.133	129.61
226.026	188.166
228.919	192.185
231.811	226.761
234.704	219.636
237.597	148.734
240.49	105.576
243.382	101.805
246.275	66.7996
249.168	47.733
252.06	96.8058
254.953	40.6501
257.846	22.8723
260.738	82.9491
263.631	45.3229
266.524	22.043
269.417	7.88806
272.309	85.7906
275.202	81.8358
278.095	139.768
280.987	109.091
283.88	100.361
286.773	93.7104
289.665	116.308
292.558	111.013
295.451	80.4673
298.344	47.5579
301.236	55.603
304.129	58.035
307.022	2.45752
309.914	11.6188
312.807	38.7444
315.7	59.3243
318.592	21.0429
321.485	28.9574
324.378	35.4414
327.271	80.7568
330.163	108.48
333.056	80.9185
335.949	52.6376
338.841	85.0227
341.734	69.7816
344.627	61.8253
347.519	58.2502
350.412	56.8115
353.305	54.621
356.197	73.6318
359.09	66.2835
361.983	63.6971
364.876	64.3169
367.768	41.2816
370.661	92.2548
373.554	61.0815
376.446	61.4841
379.339	98.21
382.232	80.389
385.125	105.1
388.017	54.328
390.91	59.4969
393.803	30.4554
396.695	3.07642
399.588	26.474
402.481	32.394
405.373	35.2814
408.266	10.4769
411.159	14.6782
414.051	6.45325
416.944	34.2434
419.837	74.9291
422.73	117.125
425.622	138.494
428.515	168.815
431.408	247.496
434.3	199.459
437.193	240.119
440.086	253.63
442.978	249.78
445.871	245.774
448.764	321.253
451.657	339.554
454.549	317.99
457.442	329.784
460.335	314.733
463.227	306.868
466.12	274.559
469.013	258.88
471.905	264.442
474.798	212.307
477.691	179.274
480.584	175.839
483.476	139.664
486.369	87.0774
489.262	64.6586
492.154	47.1586
495.047	31.0223
497.94	31.4857
500.832	56.8065
503.725	13.1178
506.618	39.8385
509.51	44.5841
512.403	22.9283
515.296	33.4258
518.189	25.7468
521.081	32.6432
523.974	14.8967
526.867	41.275
529.759	26.2362
532.652	10.1062
535.545	11.9386
538.438	7.72205
541.33	30.1056
544.223	15.9873
547.116	30.0111
550.008	38.5909
552.901	53.3471
555.794	43.2047
558.686	84.0376
561.579	118.555
564.472	119.671
567.365	135.036
570.257	179.591
573.15	211.461
576.043	203.559
578.935	200.191
581.828	164.135
584.721	178.155
587.613	151.112
590.506	113.65
593.399	119.02
596.291	97.8206
599.184	100.039
602.077	68.4244
604.97	65.0844
607.862	63.4172
610.755	61.2234
613.648	49.3876
616.54	82.6771
619.433	49.2861
622.326	60.7263
625.218	58.1641
628.111	45.9931
631.004	45.4719
633.896	20.384
636.789	33.4265
639.682	20.3422
642.575	20.8336
645.467	35.0485
648.36	7.90283
651.253	32.4848
654.145	23.5977
657.038	26.4844
659.931	11.6611
662.823	22.4404
665.716	28.0715
668.609	8.96796
671.502	7.18933
674.394	13.2982
677.287	27.401
680.18	6.19037
683.072	13.6688
685.965	14.3187
688.858	12.6061
691.75	25.4144
694.643	0.261475
697.536	41.2386
700.429	42.4808
703.321	23.5297
706.214	37.6486
709.107	41.675
711.999	37.1348
714.892	39.1324
717.785	49.8255
720.678	28.2103
723.57	19.259
726.463	34.2698
729.356	34.126
732.248	19.4483
735.141	26.4479
738.034	41.6218
740.926	58.186
743.819	45.7552
746.712	32.383
749.604	25.453
752.497	46.3475
755.39	29.8472
758.283	56.7151
761.175	33.0429
764.068	5.08392
766.961	42.9395
769.853	19.9712
772.746	32.5066
775.639	32.2144
778.531	25.9031
781.424	23.5067
784.317	34.4825
787.21	25.4683
790.102	15.2744
792.995	26.2985
795.888	9.99756
798.78	14.6763
801.673	23.4
804.566	38.8317
807.458	33.6592
810.351	1.45001
813.244	11.8997
816.136	27.1358
819.029	40.221
821.922	22.4825
824.815	19.8578
827.707	39.2268
830.6	33.8468
833.493	25.4399
836.385	31.803
839.278	29.7401
842.171	31.2602
845.063	21.7787
847.956	31.5037
850.849	42.2296
853.742	39.7203
856.634	12.2924
859.527	29.9138
862.42	20.3652
865.312	35.3485
868.205	27.2136
871.098	12.4302
873.99	37.8282
876.883	6.76678
879.776	25.6893
882.669	8.86401
885.561	8.7749
888.454	20.6874
891.347	29.4111
894.239	8.20557
897.132	0.769348
900.025	2.33423
902.918	11.3378
905.81	21.0431
908.703	19.6716
911.596	5.94031
914.488	15.1441
917.381	4.47559
920.274	3.9411
923.166	5.55713
926.059	13.6587
928.952	54.9197
931.844	0.013184
934.737	15.2117
937.63	63.1464
940.523	116.807
943.415	133.256
946.308	199.475
949.201	225.163
952.093	274.019
954.986	336.4
957.879	365.472
960.771	374.95
963.664	298.954
966.557	332.595
969.449	273.73
972.342	238.013
975.235	180.351
978.128	134.064
981.02	150.398
983.913	127.748
986.806	125.771
989.698	126.91
992.591	112.123
995.484	99.8613
998.376	121.586
1001.27	88.8171
1004.16	74.2975
1007.05	76.1899
1009.95	75.056
1012.84	75.791
1015.73	56.8331
1018.62	37.422
1021.52	41.6351
1024.41	3.07812
1027.3	28.4017
1030.2	10.7626
1033.09	13.9979
1035.98	44.9888
1038.87	72.9683
1041.77	41.471
1044.66	42.7798
1047.55	49.2584
1050.44	38.5269
1053.34	36.0012
1056.23	19.6702
1059.12	25.1713
1062.02	62.6616
1064.91	27.4873
1067.8	41.9093
1070.69	28.2616
1073.59	24.9006
1076.48	3.12805
1079.37	17.1661
1082.27	23.5252
1085.16	13.2045
1088.05	9.54578
1090.94	6.5022
1093.84	1.48059
1096.73	18.7257
1099.62	12.3752
1102.51	35.7821
1105.41	64.8182
1108.3	81.1876
1111.19	74.9126
1114.08	91.0847
1116.98	42.3108
1119.87	66.5686
1122.76	47.9609
1125.65	14.8859
1128.55	30.9393
1131.44	59.7911
1134.33	24.6747
1137.23	40.6923
1140.12	43.9994
1143.01	2.47803
1145.9	23.7754
1148.8	19.7427
1151.69	21.963
1154.58	44.4982
1157.47	6.67773
1160.37	30.0107
1163.26	11.4513
1166.15	19.4163
1169.05	33.5051
1171.94	23.9603
1174.83	4.8125
1177.72	4.48535
1180.62	42.3957
1183.51	38.1631
1186.4	34.6559
1189.3	37.3439
1192.19	19.7248
1195.08	15.5527
1197.97	23.6887
1200.87	40.9674
1203.76	18.1781
1206.65	2.99719
1209.54	24.9548
1212.44	26.9092
1215.33	46.3789
1218.22	54.283
1221.11	27.4976
1224.01	36.3795
1226.9	31.6633
1229.79	32.3301
1232.68	52.6227
1235.58	30.0271
1238.47	13.9961
1241.36	41.5627
1244.26	68.4353
1247.15	22.2349
1250.04	32.2173
1252.93	32.796
1255.83	26.5839
1258.72	40.0487
1261.61	18.0112
1264.51	19.8876
1267.4	4.39502
1270.29	14.9579
1273.18	22.2426
1276.08	40.6643
1278.97	22.1312
1281.86	24.3627
1284.75	27.9275
