Measurement: Raman, 780 nm, unoriented, Raman Data Processed
Mineral: Rockbridgeite
Rruff sample: R070594
Ideal chemistry: (Fe^2+^_0.5_Fe^3+^_0.5_)_2_Fe^3+^_3_(PO_4_)_3_(OH)_5_
Locality: Llallagua, Bustillos, Potosi, Bolivia
Source: James Shigley
Description: Radiating aggregate of black bladed crystals associated with pyrite
Raman shift (cm-1)	intensity
125.052	0
127.944	74.8125
130.837	244.746
133.73	133.961
136.623	65.75
139.515	148.836
142.408	112.758
145.301	160.18
148.193	340.082
151.086	168.824
153.979	233.836
156.871	194.125
159.764	277.422
162.657	319.438
165.549	315.891
168.442	283.383
171.335	249.109
174.228	168.684
177.12	52.3047
180.013	33.7188
182.906	59.2266
185.798	203.457
188.691	32.5078
191.584	34.2695
194.476	138.211
197.369	167.859
200.262	377.488
203.155	509.719
206.047	552.246
208.94	798.594
211.833	821.359
214.725	845.984
217.618	823.481
220.511	700.004
223.404	501.023
226.296	294.402
229.189	97.8047
232.082	344.742
234.974	217.57
237.867	202.012
240.76	142.547
243.652	72.8633
246.545	265.262
249.438	165.746
252.331	311.027
255.223	257.352
258.116	550.934
261.009	487.062
263.901	692.356
266.794	797.152
269.687	855.988
272.579	754.945
275.472	883.93
278.365	802.231
281.257	662.125
284.15	685.562
287.043	477.66
289.936	404.039
292.828	419.656
295.721	258.559
298.614	271.406
301.506	207.262
304.399	259.34
307.292	154.969
310.185	74.2734
313.077	33.8008
315.97	258.742
318.863	44.9688
321.755	19.6406
324.648	73.4648
327.541	61.4453
330.433	40.3867
333.326	18.6992
336.219	36.5586
339.111	233.352
342.004	77.2109
344.897	222.578
347.79	230.305
350.682	239.477
353.575	136.637
356.468	64.9922
359.36	51.4219
362.253	292.734
365.146	245.602
368.038	168.309
370.931	197.738
373.824	115.758
376.717	111.473
379.609	165.383
382.502	238.633
385.395	263.785
388.287	251.539
391.18	120.508
394.073	277.891
396.966	90.6914
399.858	237.66
402.751	254.332
405.644	154.367
408.536	5.31641
411.429	144.164
414.322	70.6875
417.214	57.7422
420.107	71.8828
423	79.5391
425.892	27.9258
428.785	164.422
431.678	86.6211
434.571	135.305
437.463	212.566
440.356	206.703
443.249	43.1016
446.141	146.977
449.034	264.508
451.927	289.102
454.82	159.984
457.712	154.383
460.605	34.8672
463.498	279.617
466.39	273.973
469.283	322.617
472.176	140.32
475.068	134.246
477.961	227.5
480.854	210.883
483.747	215.801
486.639	83.1016
489.532	171.152
492.425	289.055
495.317	213.629
498.21	178.117
501.103	86.7266
503.995	70.3516
506.888	166.711
509.781	208.812
512.674	107.465
515.566	182.059
518.459	233.699
521.352	234.262
524.244	7.5
527.137	59.9727
530.03	115.977
532.923	71.0859
535.815	29.1523
538.708	47.2734
541.601	147.898
544.493	93.1641
547.386	184.035
550.279	38.4492
553.171	104.234
556.064	259.285
558.957	92.6289
561.85	240.129
564.742	239.031
567.635	101.859
570.528	194.609
573.42	53.6719
576.313	272.316
579.206	199.82
582.098	235.606
584.991	188.211
587.884	221.156
590.777	285.621
593.669	263.844
596.562	234.199
599.455	138.414
602.347	187.684
605.24	170.215
608.133	98.8242
611.025	137.219
613.918	207.965
616.811	122.164
619.703	110.422
622.596	124.367
625.489	151.172
628.382	183.102
631.274	188.352
634.167	144.328
637.06	65.418
639.952	164.75
642.845	148.359
645.738	154.699
648.63	36.3906
651.523	50.2617
654.416	74.5781
657.309	153.457
660.201	69.9844
663.094	126.387
665.987	12.6172
668.879	124.301
671.772	105.016
674.665	40.9961
677.558	87.6641
680.45	192.113
683.343	41.293
686.236	134.746
689.128	187.914
692.021	27.3672
694.914	58.3008
697.806	22.5859
700.699	54.4336
703.592	26.5586
706.485	6.20703
709.377	228.184
712.27	201.641
715.163	165.07
718.055	163.438
720.948	232.969
723.841	174.242
726.733	100.316
729.626	164.543
732.519	187.441
735.412	156.625
738.304	152.25
741.197	205.781
744.09	223.117
746.982	75.9297
749.875	40.3008
752.768	106.535
755.66	83.1133
758.553	91.5312
761.446	210.891
764.338	30.7734
767.231	85.6641
770.124	3.28906
773.017	132.316
775.909	98.1172
778.802	165.371
781.695	200.219
784.587	43.9023
787.48	115.051
790.373	121.254
793.265	49.3359
796.158	301.438
799.051	455.562
801.944	191.824
804.836	147.555
807.729	182.902
810.622	26.3945
813.514	51.9609
816.407	195.18
819.3	262.406
822.192	219.113
825.085	218.269
827.978	223.461
830.871	143.633
833.763	168.402
836.656	183.43
839.549	197.508
842.442	207.461
845.334	192.539
848.227	160.769
851.12	295.633
854.012	301.43
856.905	411.922
859.798	254.75
862.69	141.258
865.583	86.5352
868.476	258.367
871.369	8.81641
874.261	295.215
877.154	167.773
880.047	152.508
882.939	212.18
885.832	143.379
888.725	106.523
891.617	80.3633
894.51	31.8594
897.403	57.3516
900.295	68.0234
903.188	50.8242
906.081	83.8594
908.974	222.293
911.866	124.66
914.759	123.426
917.652	65.8086
920.544	95.3555
923.437	1.4375
926.33	125.555
929.222	17.8672
932.115	16.0547
935.008	9.16016
937.901	54.5508
940.793	261.465
943.686	4.30469
946.579	24.7461
949.471	43.793
952.364	139.723
955.257	140.426
958.149	125.848
961.042	167.246
963.935	285.977
966.828	364.184
969.72	373.305
972.613	142.18
975.506	279.93
978.398	332.656
981.291	367.461
984.184	462.473
987.077	561.606
989.969	681
992.862	543.211
995.755	933.344
998.647	876.426
1001.54	845.254
1004.43	698.176
1007.33	761.777
1010.22	789.75
1013.11	635.606
1016	295.586
1018.9	359.117
1021.79	299.203
1024.68	208.684
1027.57	368.391
1030.47	62.4102
1033.36	149.961
1036.25	205.398
1039.14	184.5
1042.04	110.981
1044.93	229.441
1047.82	111.551
1050.72	239.273
1053.61	368.926
1056.5	348.723
1059.39	133.004
1062.29	242.828
1065.18	254.141
1068.07	193.457
1070.96	383.492
1073.86	258.789
1076.75	326.008
1079.64	188.426
1082.54	171.312
1085.43	89.4531
1088.32	157.832
1091.21	418.047
1094.11	221.098
1097	106.754
1099.89	261.34
1102.79	99.4492
1105.68	39.0234
1108.57	42.7812
1111.46	21.6406
1114.36	20.043
1117.25	82.9102
1120.14	8.67969
1123.03	55.8672
1125.93	49.6289
1128.82	77.7578
1131.71	40.8984
1134.6	228.418
1137.5	71.6055
1140.39	113.609
1143.28	406.906
1146.17	241.734
1149.07	368.219
1151.96	337.836
1154.85	177.981
1157.75	159.422
1160.64	125.562
1163.53	18.3555
1166.42	305.269
1169.32	349.25
1172.21	249.684
1175.1	370.172
1177.99	246.863
1180.89	326.769
1183.78	225.297
1186.67	495.594
1189.57	316.668
1192.46	307.082
1195.35	235.769
1198.24	391.938
1201.14	306.383
1204.03	273.285
1206.92	333.219
1209.81	552.688
1212.71	178.391
1215.6	97.6797
1218.49	297.543
1221.38	390.008
1224.28	100.82
1227.17	89.0898
1230.06	297.18
1232.96	243.012
1235.85	178.457
1238.74	28.4688
1241.63	167.055
1244.53	73.1602
1247.42	74.3516
1250.31	134.82
1253.2	91.8789
1256.1	141.113
1258.99	216.231
1261.88	282.582
1264.78	296.836
1267.67	188.688
1270.56	172.43
1273.45	309.394
1276.35	49.5078
1279.24	271.613
