Measurement: Raman, 780 nm, unoriented, Raman Data Processed
Mineral: Romarchite
Rruff sample: R080006
Ideal chemistry: SnO
Locality: Boundary Falls, Winnipeg River, Ontario, Canada
Source: Royal Ontario Museum
Description: Incrusted lustrous black crystals, reported to be fine-grained psuedomorphs of an unknown phase. Co-type material.
Measured chemistry: Sn_1.00_O
Raman shift (cm-1)	intensity
125.365	0
128.74	1.30011
132.115	3.50848
135.49	2.28601
138.865	4.63718
142.24	2.26401
145.614	0.590759
148.989	1.05072
152.364	0.791779
155.739	3.72199
159.114	4.96735
162.488	8.71609
165.863	11.7849
169.238	15.654
172.613	24.2593
175.988	35.0808
179.363	46.7517
182.737	58.6154
186.112	71.9853
189.487	87.0016
192.862	97.8706
196.237	109.693
199.612	114.33
202.986	111.881
206.361	101.975
209.736	86.3507
213.111	66.9651
216.486	46.3698
219.86	32.8509
223.235	22.6559
226.61	15.4433
229.985	12.5981
233.36	8.64502
236.734	3.37946
240.109	2.39911
243.484	2.34592
246.859	1.16016
250.234	2.44015
253.609	1.09827
256.983	0.481201
260.358	0.597443
263.733	0.522003
267.108	0.672943
270.483	0.385864
273.858	1.5658
277.232	0.684326
280.607	0.125732
283.982	1.38596
287.357	1.21402
290.731	0.897186
294.106	1.49026
297.481	1.73764
300.856	1.03113
304.231	2.97995
307.606	1.12042
310.98	1.66446
314.355	2.64099
317.73	2.01849
321.105	2.41528
324.48	2.80249
327.854	0.960083
331.229	2.27664
334.604	3.2131
337.979	0.191986
341.354	3.24594
344.729	1.7514
348.103	1.02325
351.478	0.765289
354.853	1.24911
358.228	1.19226
361.603	0.050598
364.978	1.15292
368.352	0.576294
371.727	0.623749
375.102	2.0256
378.477	1.05643
381.852	0.75531
385.226	2.26181
388.601	1.07596
391.976	0.827667
395.351	0.608154
398.726	0.627106
402.101	1.75104
405.475	1.608
408.85	3.61542
412.225	2.51202
415.6	3.21243
418.975	1.21765
422.349	2.86929
425.724	2.4299
429.099	3.21854
432.474	1.87955
435.849	3.66028
439.224	2.28268
442.598	2.56735
445.973	2.23547
449.348	3.42911
452.723	1.84076
456.098	2.65888
459.472	3.84628
462.847	2.04605
466.222	2.31418
469.597	2.66717
472.972	3.97952
476.346	1.1701
479.721	2.55987
483.096	1.76547
486.471	1.96515
489.846	2.33697
493.221	2.41132
496.595	1.74628
499.97	0.78244
503.345	1.99426
506.72	1.3822
510.095	0.945313
513.469	1.59
516.844	0.421234
520.219	2.17383
523.594	0.818207
526.969	0.723755
530.343	1.11206
533.718	0.438995
537.093	0.647888
540.468	0.764404
543.843	0.416229
547.218	0.818695
550.592	0.373779
553.967	0.396149
557.342	0.207489
560.717	0.395416
564.092	0.893982
567.466	1.62695
570.841	0.080841
574.216	1.32263
577.591	0.205353
580.966	1.44882
584.341	0.44577
587.715	0.1763
591.09	1.616
594.465	1.22378
597.84	0.137604
601.215	1.79245
604.59	0.152893
607.964	1.85965
611.339	1.04153
614.714	0.602417
618.089	0.325317
621.464	0.76767
624.838	1.67773
628.213	2.54025
631.588	1.51913
634.963	2.48816
638.338	1.75296
641.712	3.15436
645.087	2.05771
648.462	0.943359
651.837	3.09335
655.212	1.85821
658.587	0.854156
661.961	1.17535
665.336	2.90927
668.711	1.12915
672.086	1.72638
675.461	1.26355
678.835	1.28381
682.21	1.78668
685.585	0.937286
688.96	0.137299
692.335	1.02939
695.71	2.22754
699.084	0.017914
702.459	2.19467
705.834	1.36987
709.209	1.03677
712.584	1.86581
715.958	0.558136
719.333	1.77933
722.708	2.83643
726.083	1.76346
729.458	0.91214
732.832	1.36937
736.207	0.842438
739.582	2.08313
742.957	0.547592
746.332	1.78819
749.707	0.535721
753.081	0.84024
756.456	1.83617
759.831	0.28125
763.206	0.384506
766.581	1.19054
769.956	0.123383
773.33	0.437363
776.705	0.643326
780.08	0.799423
783.455	0.045761
786.83	1.27043
790.204	0.702438
793.579	0.006363
796.954	0.770721
800.329	1.89075
803.704	0.191147
807.078	1.5388
810.453	2.38899
813.828	2.76529
817.203	0.397003
820.578	2.69386
823.953	0.666534
827.327	0.879868
830.702	2.33437
834.077	2.0459
837.452	2.33017
840.827	1.36572
844.201	2.52535
847.576	0.673981
850.951	2.72615
854.326	1.58394
857.701	2.4756
861.076	2.13196
864.45	1.35118
867.825	2.35429
871.2	2.95583
874.575	2.47701
877.95	2.11966
881.324	1.24971
884.699	1.48984
888.074	0.454498
891.449	1.60486
894.824	1.66518
898.198	0.900986
901.573	0.179626
904.948	0.196777
908.323	0.325531
911.698	1.81097
915.073	1.65282
918.447	0.465179
921.822	1.45042
925.197	1.45737
928.572	1.21269
931.947	1.78459
935.322	3.02721
938.696	0.371429
942.071	1.97788
945.446	2.80594
948.821	0.898697
952.196	2.3544
955.57	1.20006
958.945	0.543488
962.32	0.406128
965.695	0.789215
969.07	0.495697
972.444	1.37476
975.819	1.05129
979.194	1.72824
982.569	0.183304
985.944	0.692352
989.318	1.20677
992.693	1.37268
996.068	0.346542
999.443	0.09465
1002.82	0.756073
1006.19	0.248352
1009.57	0.465454
1012.94	1.59433
1016.32	2.15323
1019.69	1.23715
1023.07	0.72644
1026.44	0.909027
1029.82	1.72833
1033.19	2.47713
1036.57	0.012268
1039.94	2.1759
1043.32	1.82875
1046.69	1.33035
1050.07	0.545807
1053.44	2.08836
1056.82	1.67471
1060.19	0.199692
1063.57	2.39307
1066.94	0.687149
1070.31	2.79991
1073.69	2.10037
1077.06	1.01915
1080.44	0.974747
1083.81	2.69432
1087.19	1.56883
1090.56	2.35854
1093.94	1.22725
1097.31	0.69368
1100.69	1.69997
1104.06	1.40514
1107.44	0.461975
1110.81	0.501541
1114.19	2.01744
1117.56	0.385529
1120.94	0.623215
1124.31	0.032562
1127.69	0.523849
1131.06	1.50243
1134.44	0.849274
1137.81	0.706772
1141.18	2.54268
1144.56	2.09511
1147.93	2.62099
1151.31	2.46728
1154.68	2.59688
1158.06	2.53052
1161.43	2.96445
1164.81	2.57016
1168.18	3.34553
1171.56	1.912
1174.93	2.48959
1178.31	2.74606
1181.68	1.21819
1185.06	2.10832
1188.43	4.23463
1191.81	2.84828
1195.18	3.69885
1198.56	2.21169
1201.93	2.79067
1205.31	2.23354
1208.68	2.31383
1212.06	0.240585
1215.43	1.99262
1218.81	1.28758
1222.18	0.582214
1225.56	2.48427
1228.93	1.3446
1232.31	1.15721
1235.68	1.06769
1239.06	2.26427
1242.43	0.343674
1245.81	0.70163
1249.18	1.43481
1252.55	2.85335
1255.93	0.307007
1259.3	1.87445
1262.68	1.67868
1266.05	0.249939
1269.43	1.0244
1272.8	1.94192
1276.18	1.49138
1279.55	1.01662
1282.93	0.729324
1286.3	0.303101
