Measurement: Raman, 780 nm, unoriented, Raman Data Processed
Mineral: Rosasite
Rruff sample: R100077
Ideal chemistry: Cu^2+^Zn^2+^CO_3_(OH)_2_
Locality: 79 mine, Hayden, Gila County, Arizona, USA
Source: Mark Ascher
Description: Elongated, prismatic but curved, aqua blue crystals, associated with colorless hemimorphite and white granular smithsonite
Raman shift (cm-1)	intensity
157.583	0
160.476	0.088264
163.369	0.966385
166.261	0.815445
169.154	4.75523
172.047	7.22727
174.939	9.86353
177.832	12.0312
180.725	13.4635
183.618	14.6531
186.51	14.9643
189.403	13.5597
192.296	10.54
195.188	8.27331
198.081	7.28422
200.974	5.97654
203.866	6.74442
206.759	7.09722
209.652	6.578
212.544	3.68876
215.437	4.36267
218.33	4.29929
221.223	4.73154
224.115	4.95693
227.008	3.38448
229.901	4.17666
232.793	3.68859
235.686	2.81623
238.579	2.1027
241.471	3.77142
244.364	3.0241
247.257	3.136
250.15	0.153746
253.042	1.3947
255.935	0.101849
258.828	1.10562
261.72	0.395197
264.613	1.2389
267.506	0.09565
270.399	1.39541
273.291	1.17711
276.184	3.86132
279.077	1.74757
281.969	1.39291
284.862	2.97227
287.755	2.74224
290.647	3.52452
293.54	4.10149
296.433	4.42279
299.325	5.71986
302.218	5.68398
305.111	7.52739
308.004	8.67581
310.896	9.29013
313.789	7.74102
316.682	10.1749
319.574	8.89044
322.467	8.23311
325.36	9.14297
328.252	7.86565
331.145	6.1467
334.038	4.05069
336.931	4.26225
339.823	1.18945
342.716	2.65234
345.609	0.483938
348.501	0.596697
351.394	1.05792
354.287	0.815767
357.18	0.224525
360.072	1.47593
362.965	0.809645
365.858	1.45849
368.75	0.658901
371.643	0.597868
374.536	1.04929
377.428	2.2037
380.321	1.32696
383.214	1.80125
386.106	4.10298
388.999	2.17191
391.892	2.04643
394.785	4.04202
397.677	3.4955
400.57	3.74587
403.463	4.60156
406.355	5.17833
409.248	5.22261
412.141	3.16458
415.034	4.48939
417.926	3.56633
420.819	2.96588
423.712	2.60786
426.604	2.09301
429.497	2.68806
432.39	2.44584
435.282	1.88583
438.175	1.71345
441.068	0.421085
443.961	1.47767
446.853	0.283707
449.746	0.49968
452.639	1.60895
455.531	0.789957
458.424	1.06868
461.317	1.0108
464.209	1.02829
467.102	1.2223
469.995	1.96557
472.887	1.45265
475.78	1.8509
478.673	1.06596
481.566	0.976713
484.458	2.49645
487.351	2.68498
490.244	2.98504
493.136	2.48176
496.029	2.71328
498.922	3.25891
501.815	1.51094
504.707	1.45101
507.6	2.18492
510.493	2.98351
513.385	1.84757
516.278	1.33661
519.171	1.62548
522.063	0.158699
524.956	2.27522
527.849	0.434374
530.741	0.364616
533.634	0.669702
536.527	1.73312
539.42	0.207266
542.312	1.7436
545.205	2.15791
548.098	2.04662
550.99	1.67219
553.883	0.998911
556.776	1.85988
559.668	1.41722
562.561	0.154142
565.454	1.75665
568.347	1.19039
571.239	0.590951
574.132	0.164759
577.025	0.708274
579.917	1.61227
582.81	2.2352
585.703	1.83507
588.596	0.474559
591.488	0.53108
594.381	0.456188
597.274	2.52795
600.166	2.23318
603.059	1.93404
605.952	0.458581
608.845	0.523557
611.737	0.544255
614.63	1.36265
617.523	2.42216
620.415	2.47882
623.308	1.22115
626.201	1.05925
629.093	1.0136
631.986	0.965354
634.879	0.311574
637.771	0.996019
640.664	1.7097
643.557	0.32108
646.45	0.413507
649.342	0.419813
652.235	1.12446
655.128	1.43254
658.02	1.16855
660.913	1.95518
663.806	0.523963
666.698	2.32425
669.591	1.38561
672.484	0.648906
675.377	1.15359
678.269	0.995988
681.162	2.26219
684.055	2.27659
686.947	1.3536
689.84	2.39974
692.733	1.55013
695.625	2.96692
698.518	3.03783
701.411	2.37113
704.304	2.25371
707.196	1.16121
710.089	0.871084
712.982	0.913437
715.874	0.51244
718.767	1.42103
721.66	0.698369
724.553	0.661165
727.445	0.72229
730.338	0.386456
733.231	0.018933
736.123	0.84561
739.016	0.569084
741.909	1.37794
744.801	0.756361
747.694	0.492955
750.587	1.64535
753.48	0.523005
756.372	1.67589
759.265	0.859525
762.158	0.519045
765.05	0.906734
767.943	1.15949
770.836	2.61539
773.728	0.356028
776.621	1.03919
779.514	2.14818
782.407	0.673029
785.299	0.477108
788.192	0.470959
791.085	1.48972
793.977	0.063065
796.87	1.68842
799.763	0.801899
802.655	1.57596
805.548	0.864578
808.441	0.532389
811.333	2.16109
814.226	0.34262
817.119	1.88506
820.012	1.35137
822.904	1.99183
825.797	3.09797
828.69	2.55911
831.582	3.54335
834.475	2.89396
837.368	2.5722
840.26	2.93581
843.153	2.45961
846.046	3.52705
848.939	2.91538
851.831	2.81404
854.724	2.18968
857.617	2.8459
860.509	3.40926
863.402	3.07602
866.295	3.00152
869.188	2.5959
872.08	1.38247
874.973	2.13992
877.866	2.47017
880.758	2.79132
883.651	2.97553
886.544	1.19099
889.436	3.05155
892.329	0.76009
895.222	1.71711
898.115	0.329115
901.007	1.31823
903.9	1.59884
906.793	0.410009
909.685	0.237772
912.578	0.943092
915.471	2.37623
918.363	0.65919
921.256	1.61029
924.149	1.83591
927.042	0.600982
929.934	0.570451
932.827	0.856465
935.72	1.60165
938.612	2.28511
941.505	0.8033
944.398	0.688938
947.29	0.824099
950.183	1.16865
953.076	0.88372
955.968	1.50396
958.861	1.5543
961.754	0.660056
964.647	0.187245
967.539	0.27803
970.432	1.12305
973.325	0.980218
976.217	0.037985
979.11	0.877568
982.003	1.87117
984.895	2.24946
987.788	0.54549
990.681	0.426953
993.574	2.07257
996.466	0.575334
999.359	1.71024
1002.25	1.61273
1005.14	1.42495
1008.04	0.304453
1010.93	1.47608
1013.82	3.14664
1016.72	1.40362
1019.61	1.14548
1022.5	1.89769
1025.39	1.6307
1028.29	2.10438
1031.18	2.77589
1034.07	0.842677
1036.96	1.54202
1039.86	1.8428
1042.75	2.94891
1045.64	2.33338
1048.54	1.46572
1051.43	2.81778
1054.32	2.83803
1057.21	2.43065
1060.11	3.42808
1063	4.13641
1065.89	5.36228
1068.78	7.63351
1071.68	9.94761
1074.57	10.8232
1077.46	11.3599
1080.36	11.386
1083.25	9.80243
1086.14	8.34978
1089.03	4.94928
1091.92	3.40054
1094.82	2.47887
1097.71	0.811611
1100.6	0.997817
1103.5	1.8795
1106.39	0.385351
1109.28	1.48927
1112.17	2.33841
1115.07	1.4606
1117.96	0.97814
1120.85	2.07903
1123.74	0.992926
1126.64	0.111746
1129.53	0.840852
1132.42	0.99149
1135.32	1.13407
1138.21	2.03933
1141.1	1.28056
1143.99	0.407174
1146.89	1.04544
1149.78	1.32082
1152.67	1.75105
1155.57	2.55798
1158.46	0.830483
1161.35	0.378304
1164.24	2.27656
1167.14	1.13146
1170.03	1.29761
1172.92	1.6896
1175.81	1.15145
1178.71	1.53073
1181.6	0.279291
1184.49	1.14422
1187.38	1.03024
1190.28	1.50357
1193.17	1.84307
1196.06	2.11424
1198.95	1.17757
1201.85	0.787223
1204.74	0.447621
1207.63	1.39816
1210.53	1.82397
1213.42	1.36216
1216.31	1.70149
1219.2	1.18062
1222.1	1.16033
1224.99	1.25464
1227.88	2.22535
1230.78	0.633101
1233.67	0.776567
1236.56	2.05262
1239.45	1.53033
1242.35	0.910484
1245.24	1.95777
1248.13	1.97515
1251.02	1.54875
1253.92	2.2419
1256.81	1.31054
1259.7	1.27078
1262.6	2.40203
1265.49	1.18522
1268.38	1.40308
1271.27	0.772889
1274.17	1.84424
1277.06	0.063955
1279.95	1.8302
1282.84	2.58255
1285.74	0
