Measurement: Raman, 780 nm, unoriented, Raman Data Processed
Mineral: Roxbyite
Rruff sample: R070676
Ideal chemistry: Cu_1.78_S
Locality: Olympic Dam mine, Roxby Downs, South Australia, Australia
Source: Michael Scott
Description: Microscopic black-blue metallic massive associated with hematite, co-type sample
Raman shift (cm-1)	intensity
126.063	0
128.956	2.33838
131.849	92.5286
134.741	134.648
137.634	79.9727
140.527	92.928
143.419	112.176
146.312	55.9597
149.205	78.4617
152.097	128.382
154.99	132.742
157.883	84.8516
160.775	91.113
163.668	89.5613
166.561	58.5942
169.454	93.8023
172.346	66.9121
175.239	53.5637
178.132	24.1663
181.024	28.6077
183.917	18.0012
186.81	3.30713
189.702	12.1887
192.595	42.2378
195.488	48.3652
198.381	93.3603
201.273	74.5339
204.166	141.426
207.059	114.08
209.951	100.469
212.844	133.174
215.737	173.616
218.63	158.04
221.522	137.34
224.415	157.609
227.308	177.457
230.2	148.101
233.093	182.063
235.986	143.873
238.878	115.281
241.771	205.022
244.664	145.346
247.556	184.291
250.449	128.439
253.342	87.656
256.235	116.669
259.127	107.443
262.02	130.727
264.913	106.719
267.805	94.2751
270.698	69.9673
273.591	74.9131
276.483	71.7703
279.376	84.6445
282.269	96.2847
285.162	94.6162
288.054	62.0925
290.947	111.743
293.84	61.343
296.733	59.5884
299.625	52.7793
302.518	46.5185
305.411	46.4438
308.303	36.9053
311.196	25.2974
314.089	1.73999
316.981	91.104
319.874	15.9963
322.767	30.7732
325.659	23.4653
328.552	82.8621
331.445	42.4221
334.338	52.721
337.23	51.5579
340.123	71.4959
343.016	2.76123
345.908	38.3123
348.801	30.3176
351.694	39.7632
354.587	35.5129
357.479	29.4714
360.372	18.0754
363.265	32.0173
366.157	22.6548
369.05	24.0837
371.943	24.97
374.835	24.0525
377.728	15.5095
380.621	34.3345
383.514	41.4822
386.406	54.7629
389.299	67.7588
392.192	41.6797
395.084	27.498
397.977	38.6343
400.87	54.2361
403.762	69.6926
406.655	62.3816
409.548	64.3235
412.44	113.207
415.333	30.2468
418.226	36.1973
421.119	33.7034
424.011	14.1311
426.904	36.4578
429.797	17.6958
432.689	85.4204
435.582	1.01831
438.475	17.4163
441.368	46.1296
444.26	19.6758
447.153	17.1633
450.046	10.0894
452.938	17.4163
455.831	10.2725
458.724	45.7126
461.616	49.9702
464.509	42.3923
467.402	33.2134
470.295	28.1287
473.187	10.7908
476.08	43.5288
478.973	8.55371
481.865	68.4644
484.758	58.5073
487.651	14.6096
490.543	58.1065
493.436	48.2612
496.329	20.9465
499.221	33.7227
502.114	25.2849
505.007	53.6062
507.9	13.7544
510.792	32.585
513.685	66.3726
516.578	59.1624
519.471	61.3845
522.363	74.9573
525.256	61.1077
528.149	53.0332
531.041	50.4875
533.934	52.8206
536.827	44.7727
539.719	37.2952
542.612	15.9639
545.505	55.4783
548.398	22.6218
551.29	78.4221
554.183	27.4661
557.076	56.009
559.968	19.8995
562.861	0.422607
565.754	26.342
568.646	34.4014
571.539	16.1437
574.432	39.933
577.324	9.1698
580.217	43.5552
583.11	47.2006
586.003	80.4488
588.895	67.8345
591.788	31.306
594.681	61.0892
597.573	85.6683
600.466	54.9025
603.359	96.6671
606.251	69.9325
609.144	48.0557
612.037	72.4561
614.93	13.0403
617.822	76.0264
620.715	83.1437
623.608	53.1722
626.5	75.6567
629.393	39.6589
632.286	20.5748
635.178	42.4932
638.071	39.9832
640.964	33.9117
643.857	67.5851
646.749	40.4006
649.642	37.0745
652.535	15.9565
655.427	19.6272
658.32	5.1355
661.213	30.2579
664.106	8.37744
666.998	13.2393
669.891	40.669
672.784	45.0306
675.676	46.9021
678.569	38.5253
681.462	37.4745
684.354	16.6162
687.247	39.1664
690.14	29.4315
693.033	39.973
695.925	7.04785
698.818	46.4564
701.711	42.2559
704.603	31.9064
707.496	31.3707
710.389	39.3535
713.281	29.7489
716.174	34.648
719.067	35.4701
721.96	12.7373
724.852	8.8313
727.745	22.3472
730.638	16.0559
733.53	29.9298
736.423	19.1622
739.316	6.18567
742.208	23.8862
745.101	41.9998
747.994	39.4144
750.886	41.611
753.779	24.422
756.672	9.05139
759.565	14.9244
762.457	5.23291
765.35	17.5325
768.243	41.2971
771.135	29.1012
774.028	12.9133
776.921	27.0247
779.813	40.0767
782.706	26.6747
785.599	36.6445
788.492	34.0967
791.384	14.0248
794.277	17.532
797.17	41.0156
800.062	22.2511
802.955	32.8868
805.848	11.2545
808.74	10.7308
811.633	20.4619
814.526	35.0923
817.419	32.6367
820.311	40.3207
823.204	18.1334
826.097	19.6291
828.99	31.0209
831.882	36.0133
834.775	45.1669
837.668	3.23523
840.56	48.3861
843.453	1.92273
846.346	32.2706
849.238	67.7172
852.131	61.6677
855.024	54.2772
857.917	13.4132
860.809	43.8149
863.702	37.4919
866.595	36.3977
869.487	69.2703
872.38	37.874
875.273	27.9513
878.165	24.9644
881.058	2.44312
883.951	36.6376
886.843	22.8383
889.736	67.6706
892.629	68.9182
895.522	3.23657
898.414	31.9127
901.307	5.45361
904.2	20.808
907.092	29.495
909.985	45.6193
912.878	25.2252
915.77	71.1996
918.663	55.0544
921.556	32.7417
924.449	21.283
927.341	29.8921
930.234	15.1951
933.127	21.2106
936.019	21.922
938.912	29.5269
941.805	60.5894
944.697	11.679
947.59	34.823
950.483	40.8928
953.376	67.0326
956.268	46.1924
959.161	49.2446
962.054	21.8276
964.946	14.8618
967.839	24.7585
970.732	7.68884
973.625	22.9962
976.517	18.1172
979.41	2.33911
982.303	19.3474
985.195	43.2738
988.088	11.4934
990.981	4.41357
993.874	11.7639
996.766	49.0436
999.659	41.6254
1002.55	4.82727
1005.44	4.41602
1008.34	28.731
1011.23	25.1178
1014.12	45.6709
1017.01	33.2482
1019.91	42.8265
1022.8	32.0275
1025.69	26.568
1028.59	6.43396
1031.48	13.986
1034.37	44.5087
1037.26	15.4723
1040.16	24.3658
1043.05	16.2061
1045.94	27.5666
1048.84	38.0503
1051.73	19.4168
1054.62	24.3849
1057.51	40.2479
1060.41	46.1903
1063.3	54.76
1066.19	54.8938
1069.08	51.0228
1071.98	21.4567
1074.87	1.50867
1077.76	41.4132
1080.65	5.25867
1083.55	18.1217
1086.44	26.88
1089.33	20.917
1092.22	19.0544
1095.12	57.6558
1098.01	3.93933
1100.9	25.8202
1103.8	46.8696
1106.69	35.884
1109.58	29.6063
1112.47	44.4822
1115.37	16.3956
1118.26	16.7329
1121.15	9.55359
1124.05	27.7045
1126.94	3.25354
1129.83	36.2452
1132.72	4.47827
1135.62	69.5396
1138.51	69.821
1141.4	45.3332
1144.29	44.0282
1147.19	22.6578
1150.08	3.37415
1152.97	42.3406
1155.87	50.9268
1158.76	39.3982
1161.65	5.23425
1164.54	35.3035
1167.44	32.2793
1170.33	77.6119
1173.22	65.4894
1176.11	28.4015
1179.01	51.9274
1181.9	48.6355
1184.79	74.7671
1187.68	49.6406
1190.58	53.7311
1193.47	27.3815
1196.36	13.8673
1199.26	55.8737
1202.15	64.2623
1205.04	42.5074
1207.93	52.8785
1210.83	9.52624
1213.72	33.4044
1216.61	23.5653
1219.5	11.8495
1222.4	43.0155
1225.29	20.9697
1228.18	33.1165
1231.08	2.16528
1233.97	47.0669
1236.86	5.58496
1239.75	68.1258
1242.65	14.2295
1245.54	26.1349
1248.43	24.6603
1251.32	22.9364
1254.22	17.1949
1257.11	43.9625
1260	32.6959
1262.89	11.4383
1265.79	39.6798
1268.68	21.7849
1271.57	5.9198
1274.46	11.4937
1277.36	33.477
1280.25	35.567
