Measurement: Raman, 532 nm, unoriented, Raman Data Processed
Mineral: Roxbyite
Rruff sample: R070676
Ideal chemistry: Cu_1.78_S
Locality: Olympic Dam mine, Roxby Downs, South Australia, Australia
Source: Michael Scott
Description: Microscopic black-blue metallic massive associated with hematite, co-type sample
Raman shift (cm-1)	intensity
133.753	0
137.128	1.17139
140.503	59.0418
143.878	75.1373
147.253	36.4663
150.627	3.18152
154.002	72.693
157.377	56.4903
160.752	44.4736
164.127	37.892
167.502	35.145
170.876	33.4163
174.251	35.6187
177.626	23.0912
181.001	2.78308
184.376	2.26807
187.75	7.20801
191.125	7.5014
194.5	2.93066
197.875	12.0944
201.25	1.21558
204.625	1.74786
207.999	7.99591
211.374	39.727
214.749	47.3878
218.124	64.4506
221.499	81.2788
224.873	75.7252
228.248	56.7508
231.623	63.4925
234.998	85.1304
238.373	37.3663
241.748	34.5067
245.122	75.8711
248.497	44.2524
251.872	64.7985
255.247	37.5592
258.622	23.7443
261.996	43.1674
265.371	14.9533
268.746	1.26337
272.121	36.7333
275.496	31.8384
278.87	21.2774
282.245	42.5639
285.62	43.9623
288.995	72.2198
292.37	81.1864
295.745	14.1329
299.119	58.9096
302.494	40.0817
305.869	28.0491
309.244	48.5215
312.619	17.9927
315.993	31.8563
319.368	18.9505
322.743	55.2071
326.118	56.0567
329.493	43.837
332.868	70.3133
336.242	53.8353
339.617	33.1823
342.992	53.3025
346.367	23.0193
349.742	52.1498
353.116	15.6222
356.491	37.1847
359.866	9.25104
363.241	43.0932
366.616	31.2528
369.99	16.2683
373.365	2.45856
376.74	8.31421
380.115	19.3691
383.49	26.7045
386.865	27.3926
390.239	29.9133
393.614	17.4229
396.989	37.5966
400.364	48.413
403.739	70.618
407.113	39.1548
410.488	39.4826
413.863	54.4177
417.238	41.2341
420.613	28.0121
423.988	8.7359
427.362	24.7162
430.737	27.4484
434.112	19.9416
437.487	12.0763
440.862	31.6528
444.236	17.64
447.611	15.6335
450.986	10.6862
454.361	13.042
457.736	6.98511
461.111	13.642
464.485	39.8334
467.86	31.4189
471.235	41.2403
474.61	20.681
477.985	9.22174
481.359	29.1747
484.734	39.942
488.109	23.6306
491.484	12.9322
494.859	24.2585
498.233	21.6637
501.608	4.75324
504.983	25.7907
508.358	25.0742
511.733	28.4992
515.107	45.246
518.482	42.7477
521.857	33.0444
525.232	40.7432
528.607	52.4688
531.982	53.1328
535.356	49.3042
538.731	23.3972
542.106	50.4101
545.481	31.1644
548.856	23.8484
552.231	34.341
555.605	3.35461
558.98	21.9179
562.355	35.3105
565.73	26.5297
569.105	16.7618
572.479	4.82483
575.854	47.7939
579.229	19.9756
582.604	32.5893
585.979	37.9101
589.354	20.9578
592.728	30.9132
596.103	6.79681
599.478	57.9648
602.853	58.4254
606.228	52.7097
609.602	24.4909
612.977	52.7528
616.352	33.7613
619.727	17.9336
623.102	48.3763
626.476	44.3455
629.851	25.7007
633.226	39.8661
636.601	35.7515
639.976	48.0175
643.351	21.7365
646.725	10.7553
650.1	37.2869
653.475	17.0314
656.85	51.188
660.225	33.6901
663.599	19.2247
666.974	27.5955
670.349	38.6849
673.724	26.8727
677.099	11.6125
680.473	27.3924
683.848	21.4153
687.223	2.93701
690.598	3.38001
693.973	34.7871
697.348	32.1726
700.722	34.5015
704.097	30.7754
707.472	21.0956
710.847	29.3998
714.222	14.5153
717.596	40.3277
720.971	11.8187
724.346	25.0149
727.721	5.34265
731.096	28.3915
734.471	22.6165
737.845	36.0422
741.22	8.13824
744.595	27.0906
747.97	15.9185
751.345	9.82269
754.72	22.6174
758.094	50.1785
761.469	41.8724
764.844	7.41687
768.219	31.6215
771.594	24.9399
774.968	24.5186
778.343	40.8018
781.718	21.1527
785.093	6.91589
788.468	31.9954
791.842	1.36243
795.217	34.9721
798.592	37.952
801.967	43.9215
805.342	41.7377
808.717	18.6558
812.091	23.5471
815.466	7.60687
818.841	7.70361
822.216	20.4651
825.591	13.4895
828.965	38.943
832.34	30.3768
835.715	13.3648
839.09	25.2888
842.465	23.9409
845.84	13.695
849.214	13.6841
852.589	13.9812
855.964	2.15137
859.339	18.947
862.714	7.7746
866.088	5.13263
869.463	9.93469
872.838	10.0463
876.213	36.0895
879.588	13.8402
882.962	2.81091
886.337	28.7098
889.712	19.6549
893.087	12.0975
896.462	30.192
899.837	23.0328
903.211	19.5956
906.586	4.23144
909.961	7.77594
913.336	31.0421
916.711	39.477
920.085	3.29028
923.46	32.0234
926.835	5.81909
930.21	3.7442
933.585	34.6404
936.96	31.2173
940.334	9.04376
943.709	24.6367
947.084	28.9274
950.459	1.26752
953.834	41.8909
957.208	11.5696
960.583	24.7686
963.958	26.657
967.333	39.1673
970.708	35.153
974.082	33.1225
977.457	39.0573
980.832	19.953
984.207	18.2665
987.582	27.7077
990.957	25.5436
994.331	19.1726
997.706	7.69794
1001.08	46.2537
1004.46	28.7837
1007.83	5.06464
1011.21	0.989746
1014.58	35.8449
1017.96	29.4518
1021.33	24.1113
1024.7	7.54096
1028.08	55.897
1031.45	25.3182
1034.83	26.077
1038.2	13.7309
1041.58	46.9689
1044.95	34.3104
1048.33	39.1251
1051.7	20.039
1055.08	19.8932
1058.45	30.9395
1061.83	18.9572
1065.2	6.12024
1068.58	22.8388
1071.95	29.0292
1075.33	30.3934
1078.7	16.3459
1082.08	30.5862
1085.45	18.1339
1088.83	26.3805
1092.2	33.5033
1095.58	18.7935
1098.95	28.7163
1102.33	33.0059
1105.7	26.6486
1109.08	9.39673
1112.45	12.2505
1115.83	14.4873
1119.2	30.13
1122.57	6.49109
1125.95	29.7548
1129.32	15.6798
1132.7	12.4738
1136.07	14.01
1139.45	29.8604
1142.82	12.6022
1146.2	25.1096
1149.57	12.2927
1152.95	18.5389
1156.32	12.6523
1159.7	5.72894
1163.07	15.262
1166.45	18.3743
1169.82	22.6031
1173.2	7.4649
1176.57	2.52484
1179.95	13.8442
1183.32	15.3084
1186.7	7.33099
1190.07	0.651733
1193.45	6.40454
1196.82	9.18683
1200.19	29.609
1203.57	5.93176
1206.94	12.1361
1210.32	37.4628
1213.69	29.3304
1217.07	18.8395
1220.44	27.4432
1223.82	27.3755
1227.19	0.339966
1230.57	12.2774
1233.94	25.5055
1237.32	18.9565
1240.69	23.5088
1244.07	28.005
1247.44	19.7039
1250.82	26.5108
1254.19	19.8293
1257.57	45.7537
1260.94	25.617
1264.32	27.7726
1267.69	45.4292
1271.07	17.0174
1274.44	51.6823
1277.82	15.0346
1281.19	23.7779
1284.57	8.11676
1287.94	39.1569
1291.32	31.3811
1294.69	6.28027
