Measurement: Raman, 780 nm, unoriented, Raman Data Processed
Mineral: Safflorite
Rruff sample: R070611
Ideal chemistry: (Co^2+^,Fe^2+^,Ni^2+^)As_2_
Locality: Timiskaming County, Ontario, Canada
Description: Dark gray tarnished metallic prismatic crystals embedded in metalic spherules with native silver. Crystal structure reported in Yang et al (2008). This is the structure type sample.
Measured chemistry: (Co_0.61_Ni_0.22_Fe_0.17_)_Σ=1_(As_1.99_S_0.01_)_Σ=2_
Raman shift (cm-1)	intensity
140.945	0
143.838	29.6171
146.731	93.7196
149.623	85.7413
152.516	19.4011
155.409	15.8586
158.302	65.1487
161.194	43.0194
164.087	58.6229
166.98	28.5376
169.872	25.7322
172.765	21.7743
175.658	70.5337
178.55	61.9749
181.443	10.2015
184.336	53.0441
187.228	30.1755
190.121	60.4576
193.014	5.29333
195.907	53.006
198.799	55.8396
201.692	35.8949
204.585	68.2689
207.477	50.3376
210.37	43.1217
213.263	89.5666
216.155	24.023
219.048	126.168
221.941	114.95
224.834	81.1489
227.726	109.181
230.619	66.5471
233.512	111.93
236.404	133.171
239.297	143.172
242.19	149.584
245.083	152.979
247.975	157.147
250.868	117.01
253.761	88.7441
256.653	137.564
259.546	98.8445
262.439	130.333
265.332	111.748
268.224	80.1245
271.117	59.9029
274.01	24.9049
276.902	57.8418
279.795	39.1964
282.688	36.7126
285.58	9.85181
288.473	35.9291
291.366	12.1085
294.259	52.9945
297.151	13.5106
300.044	15.397
302.937	4.5896
305.829	16.3166
308.722	31.147
311.615	16.5706
314.507	64.6211
317.4	33.3132
320.293	45.1786
323.185	0.028809
326.078	53.9779
328.971	31.8286
331.864	6.01123
334.756	66.8414
337.649	80.4215
340.542	24.7295
343.434	60.0896
346.327	56.0543
349.22	48.4333
352.113	64.5365
355.005	37.2371
357.898	35.6702
360.791	34.5717
363.683	53.6812
366.576	52.1125
369.469	4.5614
372.361	70.214
375.254	32.5355
378.147	107.526
381.039	17.705
383.932	65.6041
386.825	37.6433
389.718	49.8595
392.61	42.0912
395.503	33.4637
398.396	0.376831
401.288	14.9523
404.181	49.6354
407.074	22.4348
409.966	14.2029
412.859	40.4249
415.752	19.352
418.645	42.1683
421.537	55.671
424.43	3.12402
427.323	54.2922
430.215	57.3326
433.108	60.3285
436.001	48.0837
438.894	83.2538
441.786	76.9685
444.679	73.5943
447.572	58.4825
450.464	35.9998
453.357	82.8621
456.25	81.2645
459.142	32.5831
462.035	98.834
464.928	80.3616
467.82	53.8199
470.713	71.6138
473.606	91.1748
476.499	37.4149
479.391	19.0594
482.284	56.5372
485.177	46.1318
488.069	60.5683
490.962	24.7723
493.855	81.0305
496.748	56.2047
499.64	71.2838
502.533	0.193848
505.426	25.6802
508.318	84.2985
511.211	45.164
514.104	28.4416
516.996	64.4076
519.889	7.56567
522.782	37.5239
525.674	3.96014
528.567	40.7311
531.46	51.2075
534.353	10.8113
537.245	68.0993
540.138	25.2794
543.031	39.5819
545.923	39.2939
548.816	27.7063
551.709	22.3287
554.601	24.9432
557.494	21.5609
560.387	23.8433
563.28	53.1885
566.172	30.2227
569.065	18.5227
571.958	30.3504
574.85	41.7976
577.743	58.5441
580.636	50.9518
583.529	43.395
586.421	24.3555
589.314	45.9746
592.207	28.8239
595.099	19.2601
597.992	15.9002
600.885	13.9813
603.777	37.8681
606.67	58.602
609.563	32.3063
612.456	76.0179
615.348	5.16406
618.241	37.4963
621.134	12.9824
624.026	35.2649
626.919	39.2473
629.812	0.649719
632.704	26.1669
635.597	47.0186
638.49	43.4835
641.383	40.1511
644.275	32.3496
647.168	36.0706
650.061	36.2845
652.953	57.4347
655.846	52.4207
658.739	50.054
661.631	55.4454
664.524	62.3312
667.417	37.2109
670.309	44.2786
673.202	59.26
676.095	50.8212
678.988	22.7041
681.88	25.1738
684.773	56.1185
687.666	49.3282
690.558	3.02466
693.451	50.0401
696.344	56.3754
699.236	20.5368
702.129	5.98737
705.022	40.3409
707.915	29.1945
710.807	20.7292
713.7	80.6322
716.593	21.189
719.485	28.8328
722.378	13.4654
725.271	5.2406
728.163	53.7294
731.056	47.7175
733.949	25.6909
736.842	38.4135
739.734	40.2414
742.627	41.6901
745.52	7.33447
748.412	77.8173
751.305	64.7665
754.198	47.738
757.091	15.3133
759.983	40.892
762.876	24.794
765.769	49.5245
768.661	34.509
771.554	42.4942
774.447	1.34979
777.339	39.5122
780.232	24.3338
783.125	39.595
786.018	28.9183
788.91	26.3737
791.803	16.6657
794.696	23.2725
797.588	29.179
800.481	23.454
803.374	11.1697
806.266	58.2404
809.159	0.978394
812.052	28.4236
814.944	40.8029
817.837	4.82642
820.73	0.092651
823.623	25.0334
826.515	13.6215
829.408	26.9222
832.301	8.43494
835.193	1.53064
838.086	38.029
840.979	20.0872
843.872	44.3163
846.764	26.325
849.657	15.3038
852.55	3.13946
855.442	27.6369
858.335	13.2975
861.228	12.9803
864.12	52.5437
867.013	20.5663
869.906	18.2488
872.799	22.7552
875.691	29.1869
878.584	27.2578
881.477	7.79962
884.369	33.8962
887.262	11.8926
890.155	62.8971
893.048	45.1216
895.94	16.1478
898.833	1.7522
901.726	30.1895
904.618	54.627
907.511	52.0478
910.404	22.9002
913.296	54.9059
916.189	13.8962
919.082	59.3787
921.975	16.6747
924.867	40.8887
927.76	69.0856
930.653	54.6105
933.545	28.8339
936.438	46.4449
939.331	26.9816
942.223	20.3841
945.116	8.62921
948.009	10.4543
950.902	37.0918
953.794	9.45813
956.687	3.7619
959.58	24.1727
962.472	43.249
965.365	42.993
968.258	89.6443
971.15	13.7054
974.043	41.169
976.936	20.933
979.828	21.6896
982.721	52.1198
985.614	32.9089
988.507	8.68317
991.399	19.1932
994.292	18.3372
997.185	18.2264
1000.08	60.4446
1002.97	17.7975
1005.86	15.8538
1008.75	30.8159
1011.65	57.9003
1014.54	17.2215
1017.43	30.0216
1020.33	40.1463
1023.22	31.2944
1026.11	40.6956
1029	11.3348
1031.9	16.33
1034.79	11.2609
1037.68	29.4979
1040.58	15.4817
1043.47	20.7084
1046.36	23.5818
1049.25	48.9122
1052.15	51.3909
1055.04	15.7519
1057.93	0.069946
1060.82	45.391
1063.72	56.2928
1066.61	8.2561
1069.5	6.5036
1072.39	52.5173
1075.29	24.3723
1078.18	25.3637
1081.07	33.4595
1083.97	27.6939
1086.86	35.5735
1089.75	41.401
1092.64	19.2264
1095.54	20.4051
1098.43	29.2896
1101.32	22.5275
1104.21	5.8584
1107.11	54.7531
1110	47.3253
1112.89	4.34454
1115.79	11.4222
1118.68	40.6831
1121.57	10.0983
1124.46	6.71258
1127.36	2.22632
1130.25	26.5171
1133.14	21.1463
1136.03	36.4259
1138.93	21.9072
1141.82	1.7901
1144.71	14.2371
1147.61	35.101
1150.5	46.1356
1153.39	41.2339
1156.28	50.4355
1159.18	11.9464
1162.07	19.1462
1164.96	35.9139
1167.85	26.0549
1170.75	38.7275
1173.64	30.7982
1176.53	24.6401
1179.42	31.6345
1182.32	30.6661
1185.21	31.4981
1188.1	17.7971
1191	2.65277
1193.89	27.6859
1196.78	38.9428
1199.67	98.2418
1202.57	41.7043
1205.46	49.866
1208.35	45.7211
1211.24	24.1612
1214.14	81.1534
1217.03	27.1185
1219.92	14.2724
1222.82	35.5536
1225.71	8.14349
1228.6	3.32422
1231.49	45.2789
1234.39	54.5299
1237.28	55.4615
1240.17	7.41882
1243.06	21.5539
