Measurement: Raman, 532 nm, unoriented, Raman Data Processed
Mineral: Safflorite
Rruff sample: R070611
Ideal chemistry: (Co^2+^,Fe^2+^,Ni^2+^)As_2_
Locality: Timiskaming County, Ontario, Canada
Description: Dark gray tarnished metallic prismatic crystals embedded in metalic spherules with native silver. Crystal structure reported in Yang et al (2008). This is the structure type sample.
Measured chemistry: (Co_0.61_Ni_0.22_Fe_0.17_)_Σ=1_(As_1.99_S_0.01_)_Σ=2_
Raman shift (cm-1)	intensity
146.391	0
149.283	293.492
152.176	37.8701
155.069	178.95
157.961	12.7324
160.854	227.915
163.747	470.528
166.639	47.3252
169.532	460.847
172.425	376.453
175.318	443.142
178.21	232.445
181.103	182.762
183.996	62.0352
186.888	102.028
189.781	40.623
192.674	58.1602
195.566	80.2119
198.459	37.1094
201.352	151.204
204.245	186.075
207.137	118.166
210.03	2.83496
212.923	26.0859
215.815	108.309
218.708	302.337
221.601	405.92
224.494	546.624
227.386	183.058
230.279	294.613
233.172	430.204
236.064	146.855
238.957	320.852
241.85	175.817
244.742	146.674
247.635	636.882
250.528	16.688
253.421	112.845
256.313	480.927
259.206	360.981
262.099	493.721
264.991	453.871
267.884	344.179
270.777	370.969
273.669	644.769
276.562	506.826
279.455	290.968
282.347	431.377
285.24	274.022
288.133	355.08
291.026	358.975
293.918	177.704
296.811	474.434
299.704	132.504
302.596	170.534
305.489	300.388
308.382	42.8506
311.274	158.405
314.167	255.484
317.06	331.634
319.952	193.464
322.845	487.703
325.738	375.139
328.631	44.8892
331.523	275.394
334.416	181.231
337.309	173.882
340.201	141.031
343.094	240.054
345.987	67.9668
348.88	112.801
351.772	311.698
354.665	203.661
357.558	58.5249
360.45	392.156
363.343	262.004
366.236	359.428
369.128	313.608
372.021	155.65
374.914	168.478
377.807	201.847
380.699	73.063
383.592	26.9868
386.485	8.85059
389.377	406.637
392.27	423.513
395.163	316.525
398.055	146.318
400.948	397.303
403.841	195.949
406.733	521.693
409.626	75.6582
412.519	264.927
415.412	300.184
418.304	526.733
421.197	201.883
424.09	219.76
426.982	202.46
429.875	223.449
432.768	297.892
435.661	340.151
438.553	283.309
441.446	506.612
444.339	195.698
447.231	44.4853
450.124	53.7065
453.017	12.8188
455.909	298.412
458.802	426.827
461.695	289.819
464.587	121.179
467.48	187.836
470.373	503.56
473.265	105.277
476.158	194.319
479.051	146.662
481.944	146.578
484.836	355.361
487.729	333.375
490.622	246.627
493.514	243.86
496.407	206.226
499.3	183.742
502.192	206.496
505.085	265.505
507.978	270.438
510.871	136.287
513.763	351.116
516.656	112.934
519.549	88.2524
522.441	41.8843
525.334	123.02
528.227	218.114
531.12	164.031
534.012	254.894
536.905	218.502
539.798	179.945
542.69	67.4893
545.583	101.737
548.476	329.029
551.368	171.911
554.261	7.92676
557.154	139.508
560.047	145.396
562.939	392.585
565.832	263.531
568.725	364.647
571.617	113.599
574.51	269.085
577.403	62.606
580.295	20.3296
583.188	215.497
586.081	416.851
588.973	352.95
591.866	213.183
594.759	107.609
597.652	57.7993
600.544	302.602
603.437	281.885
606.33	237.85
609.222	300.951
612.115	552.877
615.008	183.965
617.9	4.90723
620.793	371.835
623.686	196.231
626.579	50.2046
629.471	9.25635
632.364	264.883
635.257	12.2764
638.149	68.0659
641.042	255.695
643.935	324.481
646.827	381.289
649.72	235.251
652.613	35.9849
655.506	96.9443
658.398	436.665
661.291	473.231
664.184	321.137
667.076	300.867
669.969	524.698
672.862	344.033
675.754	279.546
678.647	103.027
681.54	145.137
684.433	447.976
687.325	223.904
690.218	97.3037
693.111	340.978
696.003	532.652
698.896	344.125
701.789	212.113
704.681	318.663
707.574	340.574
710.467	370.742
713.36	248.299
716.252	80.5874
719.145	278.571
722.038	113.885
724.93	364.453
727.823	15.019
730.716	134.325
733.608	59.4473
736.501	288.435
739.394	162.315
742.287	158.966
745.179	115.901
748.072	184.16
750.965	254.636
753.857	91.3584
756.75	459.692
759.643	261.145
762.535	52.5259
765.428	168.238
768.321	229.343
771.213	289.946
774.106	12.499
776.999	505.085
779.891	56.0459
782.784	272.68
785.677	129.461
788.57	21.7607
791.462	108.085
794.355	77.2373
797.248	256.141
800.14	352.781
803.033	173.898
805.926	198.202
808.818	248.653
811.711	166.257
814.604	94.7583
817.497	57.3325
820.389	168.952
823.282	64.2031
826.175	191.08
829.067	173.131
831.96	195.539
834.853	115.005
837.745	22.2441
840.638	44.1567
843.531	255.9
846.424	289.121
849.316	231.932
852.209	45.7842
855.102	203.98
857.994	151.818
860.887	290.096
863.78	302.48
866.673	477.357
869.565	311.728
872.458	294.216
875.351	521.41
878.243	49.0264
881.136	36.2793
884.029	39.375
886.921	88.3682
889.814	261.598
892.707	119.986
895.6	365.558
898.492	324.521
901.385	355.245
904.278	22.8452
907.17	42.0957
910.063	166.498
912.956	175.69
915.848	196.166
918.741	307.144
921.634	24.9233
924.527	150.816
927.419	46.2515
930.312	277.691
933.205	133.167
936.097	177.417
938.99	17.3433
941.883	371.435
944.775	224.547
947.668	305.801
950.561	134.592
953.453	76.1802
956.346	175.018
959.239	237.135
962.131	52.2085
965.024	53.0254
967.917	56.2588
970.81	133.076
973.702	140.099
976.595	200.815
979.488	71.4297
982.38	259.385
985.273	126.69
988.166	82.0562
991.058	138.642
993.951	194.758
996.844	176.939
999.737	9.29053
1002.63	136.694
1005.52	155.019
1008.41	84.8721
1011.31	185.862
1014.2	186.275
1017.09	4.83447
1019.99	30.3457
1022.88	152.385
1025.77	86.3603
1028.66	356.491
1031.56	440.085
1034.45	465.114
1037.34	422.731
1040.23	280.008
1043.13	9.69775
1046.02	119.232
1048.91	262.601
1051.81	169.875
1054.7	298.669
1057.59	291.155
1060.48	434.473
1063.38	70.5249
1066.27	3.56152
1069.16	66.1953
1072.05	60.6289
1074.95	324.977
1077.84	202.189
1080.73	201.972
1083.62	122.653
1086.52	76.7275
1089.41	94.8955
1092.3	156.911
1095.2	219.934
1098.09	305.808
1100.98	263.031
1103.87	341.918
1106.77	63.3457
1109.66	21.9346
1112.55	260.049
1115.44	196.708
1118.34	185.682
1121.23	117.715
1124.12	105.724
1127.02	63.1704
1129.91	158.609
1132.8	248.597
1135.69	86.3174
1138.59	105.295
1141.48	389.356
1144.37	68.5186
1147.26	239.555
1150.16	144.86
1153.05	130.561
1155.94	410.619
1158.84	66.8555
1161.73	129.084
1164.62	183.53
1167.51	143.649
1170.41	353.714
1173.3	214.086
1176.19	162.719
1179.08	340.865
1181.98	126.4
1184.87	238.474
1187.76	151.33
1190.65	261.187
1193.55	279.899
1196.44	287.003
1199.33	165.698
1202.22	157.681
1205.12	124.324
1208.01	38.7207
1210.9	78.6704
1213.8	195.745
1216.69	19.5947
1219.58	225.997
1222.47	240.314
1225.37	52.7622
1228.26	237.623
1231.15	143.036
1234.05	151.75
1236.94	175.142
1239.83	152.524
1242.72	225.957
1245.62	189.722
1248.51	62.0142
1251.4	172.873
1254.29	194.222
1257.19	210.01
1260.08	108.64
1262.97	31.7261
