Measurement: Raman, 780 nm, unoriented, Raman Data Processed
Mineral: Safflorite
Rruff sample: R100115
Ideal chemistry: (Co^2+^,Fe^2+^,Ni^2+^)As_2_
Locality: Hudson Bay (Rustex) mine, Gowganda area, Ontario, Canada
Source: Robert Woodside
Description: Steel gray elongated tablets arranged as sixling twins
Raman shift (cm-1)	intensity
145.727	0
148.62	1.18728
151.512	0.740295
154.405	0.526119
157.298	0.927231
160.19	3.36303
163.083	1.82424
165.976	3.57426
168.869	2.40075
171.761	3.95045
174.654	4.03939
177.547	0.877659
180.439	2.72419
183.332	1.75306
186.225	2.44772
189.117	1.44862
192.01	0.041447
194.903	0.533131
197.796	0.152658
200.688	1.12943
203.581	0.924391
206.474	0.155781
209.366	0.976242
212.259	0.826595
215.152	1.61609
218.044	0.860401
220.937	3.69685
223.83	2.91935
226.722	2.37308
229.615	3.78636
232.508	2.21648
235.4	2.75088
238.293	3.54692
241.186	3.0346
244.079	2.56347
246.971	3.12694
249.864	2.21
252.757	3.13324
255.649	2.68959
258.542	1.24744
261.435	0.625723
264.327	1.01697
267.22	2.37136
270.113	0.509562
273.006	2.71597
275.898	2.43658
278.791	2.11855
281.684	2.38274
284.576	1.01415
287.469	2.17418
290.362	0.077667
293.255	0.76132
296.147	1.78842
299.04	2.90731
301.933	0.768667
304.825	0.980145
307.718	0.207623
310.611	0.165604
313.503	0.303509
316.396	2.13359
319.289	0.935574
322.182	1.61171
325.074	2.7005
327.967	1.83115
330.86	2.19952
333.752	1.32029
336.645	0.390707
339.538	2.76453
342.43	0.36191
345.323	1.17411
348.216	0.892445
351.108	1.66207
354.001	1.40196
356.894	1.06955
359.786	1.02157
362.679	1.23408
365.572	1.24999
368.465	0.946325
371.357	2.17882
374.25	1.59092
377.143	1.28348
380.035	0.944407
382.928	1.36272
385.821	0.584953
388.714	1.18133
391.606	0.699266
394.499	0.097805
397.392	1.25537
400.284	0.939657
403.177	0.048435
406.07	2.0709
408.962	0.842999
411.855	2.3418
414.748	1.01165
417.64	2.73063
420.533	1.25585
423.426	0.31383
426.319	1.89316
429.211	0.902587
432.104	0.058213
434.997	1.4622
437.889	1.69564
440.782	3.5719
443.675	0.80903
446.567	1.48601
449.46	1.06616
452.353	1.76982
455.246	1.35296
458.138	1.53987
461.031	2.33639
463.924	2.09497
466.816	1.27766
469.709	1.36212
472.602	1.15362
475.495	1.02327
478.387	0.175241
481.28	2.12367
484.173	2.33059
487.065	1.07329
489.958	1.6475
492.851	1.08118
495.743	0.112086
498.636	0.876316
501.529	1.36498
504.421	1.21968
507.314	0.525078
510.207	1.87869
513.1	3.4316
515.992	0.520965
518.885	1.88382
521.778	0.982864
524.67	1.5652
527.563	1.00678
530.456	2.06142
533.348	0.579183
536.241	1.68358
539.134	1.33854
542.027	3.03585
544.919	3.66375
547.812	1.49165
550.705	2.73581
553.597	2.05873
556.49	1.25548
559.383	1.44056
562.275	0.896072
565.168	1.29428
568.061	2.25441
570.953	0.455976
573.846	0.929122
576.739	1.18281
579.632	2.18071
582.524	1.92555
585.417	1.05399
588.31	0.816254
591.202	1.7568
594.095	1.5995
596.988	1.96227
599.88	1.72917
602.773	1.55517
605.666	1.46679
608.559	1.76703
611.451	1.55665
614.344	1.69406
617.237	2.03421
620.129	0.229618
623.022	0.004935
625.915	0.801166
628.807	3.33096
631.7	1.2922
634.593	2.81978
637.486	1.53765
640.378	1.59506
643.271	0.305928
646.164	1.79095
649.056	2.05682
651.949	1.53103
654.842	1.52391
657.734	0.840434
660.627	1.92898
663.52	1.22857
666.413	1.30688
669.305	0.821588
672.198	1.4497
675.091	1.33567
677.983	1.01187
680.876	0.46079
683.769	0.143668
686.661	2.33522
689.554	1.43987
692.447	0.20255
695.34	0.511436
698.232	0.655739
701.125	2.08392
704.018	1.9021
706.91	1.41115
709.803	0.240732
712.696	1.40962
715.588	0.091215
718.481	0.986288
721.374	0.982432
724.266	1.6443
727.159	0.921704
730.052	0.962325
732.945	0.750435
735.837	0.0893
738.73	0.047929
741.623	0.64946
744.515	2.17921
747.408	1.22232
750.301	0.344847
753.193	1.41572
756.086	2.88022
758.979	0.719809
761.872	1.17688
764.764	2.23223
767.657	1.51774
770.55	0.395956
773.442	0.196795
776.335	2.56087
779.228	1.66412
782.12	0.280008
785.013	1.11734
787.906	1.38278
790.798	1.89198
793.691	1.01358
796.584	2.31805
799.477	0.715597
802.369	0.499872
805.262	3.24513
808.155	2.57912
811.047	1.36047
813.94	1.92227
816.833	1.7943
819.726	2.66495
822.618	2.01403
825.511	2.05578
828.404	2.09421
831.296	2.10409
834.189	3.4789
837.082	1.44512
839.974	2.49295
842.867	2.67279
845.76	2.31537
848.653	3.08822
851.545	2.28965
854.438	4.33809
857.331	1.97184
860.223	1.84943
863.116	4.683
866.009	3.07871
868.901	2.4455
871.794	2.58833
874.687	2.27823
877.58	2.80808
880.472	1.70348
883.365	1.7734
886.258	1.32014
889.15	1.35266
892.043	1.14253
894.936	1.51017
897.828	0.453157
900.721	1.04256
903.614	0.926251
906.506	0.16785
909.399	1.11639
912.292	2.39752
915.185	0.529682
918.077	0.736892
920.97	2.97706
923.863	1.06635
926.755	0.289651
929.648	0.120798
932.541	0.773906
935.433	0.582056
938.326	1.57184
941.219	1.78631
944.112	1.11789
947.004	1.94395
949.897	2.86025
952.79	1.90069
955.682	1.58221
958.575	1.16702
961.468	1.11519
964.36	1.00252
967.253	1.72669
970.146	0.173692
973.038	0.552165
975.931	0.056225
978.824	1.49506
981.717	0.925201
984.609	0.731297
987.502	0.089132
990.395	0.088417
993.287	0.288539
996.18	2.87061
999.073	1.78525
1001.97	0.846172
1004.86	0.474181
1007.75	1.9904
1010.64	1.98865
1013.54	1.06917
1016.43	0.943642
1019.32	2.53384
1022.21	1.49964
1025.11	0.848544
1028	3.11526
1030.89	1.6557
1033.79	1.15726
1036.68	1.01236
1039.57	2.07396
1042.46	0.406516
1045.36	1.39497
1048.25	1.49737
1051.14	2.17401
1054.03	0.242926
1056.93	2.18955
1059.82	0.913371
1062.71	1.6265
1065.61	2.80248
1068.5	1.40344
1071.39	0.908855
1074.28	2.42837
1077.18	1.31316
1080.07	0.285293
1082.96	2.33752
1085.85	0.181201
1088.75	1.24003
1091.64	0.874574
1094.53	1.27211
1097.42	0.205782
1100.32	0.930752
1103.21	1.54569
1106.1	0.084372
1108.99	0.626382
1111.89	1.20476
1114.78	0.425916
1117.67	1.73049
1120.57	3.13166
1123.46	0.09271
1126.35	2.06273
1129.24	1.0124
1132.14	0.393284
1135.03	1.48653
1137.92	0.198686
1140.82	0.267198
1143.71	0.616354
1146.6	1.5883
1149.49	0.740661
1152.39	2.26498
1155.28	1.9356
1158.17	2.19785
1161.06	1.5678
1163.96	1.60181
1166.85	1.73073
1169.74	1.81945
1172.63	1.28323
1175.53	1.73465
1178.42	2.55477
1181.31	1.45427
1184.2	0.73316
1187.1	2.44543
1189.99	1.78082
1192.88	1.97584
1195.78	1.18786
1198.67	1.35906
1201.56	0.141769
1204.45	0.940545
1207.35	3.19704
1210.24	0.055455
1213.13	1.48958
1216.03	1.73601
1218.92	2.17101
1221.81	2.27348
1224.7	0.870486
1227.6	2.40506
1230.49	1.98718
1233.38	1.85064
1236.27	0.339789
1239.17	1.40071
1242.06	2.8352
1244.95	1.48935
1247.85	1.59516
1250.74	1.55253
1253.63	2.55162
1256.52	2.10617
1259.42	1.72621
1262.31	2.17339
1265.2	1.44877
1268.09	2.89228
1270.99	1.30327
1273.88	1.53941
1276.77	0.170158
1279.66	0.223536
1282.56	2.06355
