Measurement: Raman, 785 nm, unoriented, Raman Data Processed
Mineral: Sampleite
Rruff sample: R070018
Ideal chemistry: NaCaCu^2+^_5_(P^5+^O_4_)_4_Cl5H_2_O
Locality: Endeavour 26 Open Cut, Northparkes mine, Goonumbla, NSW, Australia
Source: Mark Mauthner
Description: Electric-blue platy crystals on limonitic matrix
Raman shift (cm-1)	intensity
186.395	0
189.288	44.5098
192.181	6.4082
195.074	120.555
197.966	183.681
200.859	213.547
203.752	311.254
206.644	358.571
209.537	311.84
212.43	287.746
215.322	288.636
218.215	333.958
221.108	386.354
224.001	403.957
226.893	386.885
229.786	340.309
232.679	292.104
235.571	331.985
238.464	263.368
241.357	323.609
244.25	296.728
247.142	263.815
250.035	203.151
252.928	259.728
255.82	248.628
258.713	288.712
261.606	215.147
264.498	157.701
267.391	165.469
270.284	205.341
273.176	249.544
276.069	166.523
278.962	90.2168
281.855	184.685
284.747	279.246
287.64	220.373
290.533	217.321
293.425	321.067
296.318	176.727
299.211	86.7451
302.103	58.8477
304.996	157.061
307.889	161.377
310.782	94.3223
313.674	108.372
316.567	37.2334
319.46	25.2354
322.352	70.3477
325.245	121.724
328.138	25.166
331.031	26.7617
333.923	95.3887
336.816	83.3086
339.709	24.6143
342.601	47.3447
345.494	28.6797
348.387	23.0615
351.279	1.10938
354.172	133.165
357.065	58.5312
359.957	44.9033
362.85	49.7666
365.743	103.877
368.636	49.2549
371.528	66.0059
374.421	74.8818
377.314	41.8486
380.207	70.7754
383.099	14.3613
385.992	87.9004
388.885	6.08887
391.777	30.6748
394.67	74.8769
397.563	52.042
400.455	17.1348
403.348	85.2959
406.241	31.6719
409.134	95.4482
412.026	21.127
414.919	1.01953
417.812	110.221
420.704	92.9492
423.597	107.492
426.49	128.955
429.382	79.2012
432.275	111.53
435.168	107.22
438.06	145.91
440.953	131.732
443.846	146.079
446.739	195.227
449.631	120.856
452.524	114.853
455.417	149.272
458.309	102.949
461.202	57.3838
464.095	109.37
466.988	149.742
469.88	90.874
472.773	109.866
475.666	47.0713
478.558	161.348
481.451	19.8555
484.344	51.2832
487.236	119.225
490.129	90.2402
493.022	51.5049
495.914	32.1182
498.807	89.834
501.7	94.9121
504.593	2.86231
507.485	38.667
510.378	74.0977
513.271	42.5195
516.163	142.536
519.056	94.6074
521.949	8.7002
524.841	108.348
527.734	18.6055
530.627	63.8555
533.52	94.4678
536.412	16.6953
539.305	26.502
542.198	158.18
545.09	72.5107
547.983	98.2119
550.876	32.9531
553.769	39.1435
556.661	111.089
559.554	57.915
562.447	134.214
565.339	113.189
568.232	29.3525
571.125	88.1084
574.017	150.6
576.91	81.8672
579.803	117.12
582.696	67.3086
585.588	222.031
588.481	39.4883
591.374	69.6602
594.266	169.84
597.159	99.7129
600.052	118.256
602.944	96.6191
605.837	125.959
608.73	57.5488
611.622	67.6328
614.515	153.064
617.408	93.8018
620.301	50.5879
623.193	119.376
626.086	184.106
628.979	75.5215
631.871	196.883
634.764	251.727
637.657	234.972
640.549	282.043
643.442	148.243
646.335	176.452
649.228	119.865
652.12	151.934
655.013	161.67
657.906	144.583
660.798	78.75
663.691	61.0195
666.584	119.989
669.476	137.339
672.369	22.3096
675.262	6.66992
678.155	76.8398
681.047	17.6064
683.94	126.624
686.833	141.505
689.726	45.8359
692.618	3.88574
695.511	128.347
698.404	156.618
701.296	0.492188
704.189	112.499
707.082	140.465
709.974	76.8643
712.867	101.52
715.76	33.0664
718.653	94.5469
721.545	143.293
724.438	36.667
727.331	72.1094
730.223	9.97461
733.116	87.165
736.009	110.192
738.901	89.9648
741.794	105.629
744.687	60.1914
747.58	104.954
750.472	115.495
753.365	19.333
756.258	113.325
759.15	44.6123
762.043	9.87793
764.936	64.7168
767.828	105.505
770.721	89.6953
773.614	63.4756
776.506	89.0957
779.399	1.18359
782.292	82.7803
785.185	156.353
788.077	117.022
790.97	45.5742
793.863	181.172
796.755	66.0586
799.648	86.4248
802.541	101.028
805.433	21.4863
808.326	148.642
811.219	54.7373
814.112	85.9356
817.004	145.752
819.897	27.7168
822.79	111.928
825.682	21.8145
828.575	8.78711
831.468	39.2832
834.361	61.4228
837.253	106.913
840.146	35.6719
843.039	103.403
845.931	55.4834
848.824	96.5088
851.717	77.7051
854.609	53.1787
857.502	98.8682
860.395	98.7061
863.288	73.2842
866.18	82.6367
869.073	49.583
871.966	53.5156
874.858	31.6982
877.751	51.5029
880.644	78.582
883.536	20.7041
886.429	38.332
889.322	45.4707
892.215	52.2666
895.107	27.7354
898	32.0566
900.893	42.5918
903.785	97.0176
906.678	128.545
909.571	8.10449
912.463	43.6543
915.356	14.7422
918.249	9.68848
921.141	127.456
924.034	114.284
926.927	122.794
929.82	98.2148
932.712	85.916
935.605	66.6123
938.498	8.70215
941.39	105.214
944.283	92.3672
947.176	108.394
950.068	76.9961
952.961	40.2852
955.854	193.752
958.747	130.94
961.639	210.357
964.532	155.256
967.425	248.086
970.317	167.101
973.21	213.926
976.103	200.626
978.995	226.664
981.888	184.885
984.781	240.548
987.674	130.27
990.566	251.393
993.459	116.534
996.352	110.022
999.244	140.465
1002.14	78.1631
1005.03	0.540039
1007.92	5.38086
1010.82	27.1055
1013.71	18.4932
1016.6	7.04394
1019.49	70.3096
1022.39	12.2646
1025.28	19.9951
1028.17	64.0928
1031.06	71.6309
1033.96	81.5674
1036.85	62.499
1039.74	48.7441
1042.63	0.470703
1045.53	31.5186
1048.42	54.5576
1051.31	75.8096
1054.21	30.3623
1057.1	80.1191
1059.99	29.6533
1062.88	85.457
1065.78	133.956
1068.67	166.425
1071.56	90.1045
1074.45	168.593
1077.35	128.726
1080.24	164.421
1083.13	80.1143
1086.03	133.609
1088.92	61.5664
1091.81	52.7959
1094.7	156.046
1097.6	109.363
1100.49	136.894
1103.38	37.0537
1106.27	137.121
1109.17	66.9004
1112.06	191.475
1114.95	78.6191
1117.85	148.56
1120.74	121.147
1123.63	132.669
1126.52	18.8311
1129.42	172.036
1132.31	144.196
1135.2	49.0723
1138.09	156.138
1140.99	67.7188
1143.88	105.303
1146.77	129.418
1149.66	113.102
1152.56	61.3086
1155.45	188.424
1158.34	53.7197
1161.24	24.335
1164.13	87.7998
1167.02	23.4453
1169.91	42.4834
1172.81	86.1699
1175.7	62.6572
1178.59	85.2148
1181.48	112.397
1184.38	30.6748
1187.27	75.8613
1190.16	85.8662
1193.06	104.43
1195.95	44.2002
1198.84	31.6689
1201.73	47.96
1204.63	49.5576
1207.52	102.33
1210.41	58.9668
1213.3	14.459
1216.2	108.293
1219.09	78.4199
1221.98	107.455
1224.88	106.668
1227.77	76.6963
1230.66	19.4902
1233.55	75.8535
1236.45	12.1406
1239.34	98.7168
1242.23	43.3711
1245.12	0
