Measurement: Raman, 780 nm, unoriented, Raman Data Processed
Mineral: Sampleite
Rruff sample: R090072
Ideal chemistry: NaCaCu^2+^_5_(P^5+^O_4_)_4_Cl5H_2_O
Locality: Engaño Feliz mine, Las Pintadas dist., Tierra Amarilla, Copiapó Province, Chile
Source: Bob Jenkins
Description: Blue bladed crystals in radial aggregates associated with elongated, forest-green libethenite and dark-green atacamite. This is the polymorph or polytype described in Giester et al (2007)
Raman shift (cm-1)	intensity
132.325	0
135.218	3.80656
138.11	3.15931
141.003	1.42409
143.896	0.278654
146.788	0.179897
149.681	0.787537
152.574	0.91847
155.466	2.1383
158.359	0.588438
161.252	0.745163
164.145	1.57128
167.037	1.40802
169.93	1.13486
172.823	5.24457
175.715	3.64097
178.608	6.23618
181.501	9.0525
184.393	10.2561
187.286	5.68455
190.179	4.78097
193.072	4.25808
195.964	3.76786
198.857	1.81686
201.75	4.76753
204.642	1.47906
207.535	3.76294
210.428	2.40013
213.321	0.00853
216.213	2.03614
219.106	2.10032
221.999	2.09957
224.891	1.11585
227.784	0.217229
230.677	1.78064
233.569	1.71249
236.462	3.77593
239.355	1.8068
242.248	2.79798
245.14	1.64824
248.033	0.094171
250.926	5.09856
253.818	2.574
256.711	0.983298
259.604	2.79993
262.496	2.74145
265.389	2.73249
268.282	3.26788
271.175	5.7679
274.067	6.9434
276.96	7.18172
279.853	7.28209
282.745	8.90903
285.638	6.87616
288.531	6.21425
291.423	6.00938
294.316	3.78286
297.209	3.29786
300.101	4.97899
302.994	0.931834
305.887	0.1435
308.78	2.30139
311.672	0.607681
314.565	2.43966
317.458	2.53967
320.35	3.85113
323.243	2.75879
326.136	0.110472
329.029	1.90311
331.921	0.882876
334.814	3.55255
337.707	2.29692
340.599	2.62441
343.492	0.673407
346.385	4.49539
349.277	2.8091
352.17	3.8293
355.063	3.74046
357.955	2.9947
360.848	1.69943
363.741	2.28959
366.634	2.38837
369.526	0.472398
372.419	0.309678
375.312	2.32349
378.204	1.57376
381.097	4.6163
383.99	2.69204
386.882	5.11758
389.775	3.01408
392.668	1.75475
395.561	0.115726
398.453	5.20713
401.346	2.52782
404.239	1.61582
407.131	5.82048
410.024	1.70883
412.917	2.53929
415.81	1.29861
418.702	0.563899
421.595	3.59023
424.488	4.7783
427.38	3.51273
430.273	2.83142
433.166	1.68566
436.058	3.21133
438.951	5.3346
441.844	2.77417
444.736	3.82151
447.629	5.88559
450.522	7.93061
453.415	6.98842
456.307	2.24703
459.2	1.95764
462.093	4.61916
464.985	1.31053
467.878	1.51288
470.771	1.84133
473.663	3.50261
476.556	2.37785
479.449	3.33217
482.342	4.18398
485.234	1.10479
488.127	3.06999
491.02	1.03628
493.912	3.61178
496.805	2.10726
499.698	1.40605
502.591	3.28289
505.483	2.73737
508.376	1.85818
511.269	3.31542
514.161	3.52531
517.054	2.01724
519.947	2.68636
522.839	2.02916
525.732	2.01144
528.625	1.45823
531.518	0.294579
534.41	3.92923
537.303	2.36553
540.196	4.01944
543.088	2.03459
545.981	3.54794
548.874	2.06656
551.766	1.59653
554.659	4.50605
557.552	3.99602
560.444	3.87047
563.337	0.894351
566.23	1.71195
569.123	1.65834
572.015	1.65571
574.908	3.6062
577.801	1.95379
580.693	3.19395
583.586	4.24677
586.479	1.58304
589.371	1.21859
592.264	3.97876
595.157	0.562925
598.05	3.40206
600.942	1.90646
603.835	3.06762
606.728	4.39791
609.62	3.36009
612.513	2.14346
615.406	4.54573
618.298	4.99396
621.191	4.17529
624.084	6.46571
626.977	5.41433
629.869	5.13701
632.762	5.72683
635.655	4.18643
638.547	5.44299
641.44	6.60543
644.333	4.0745
647.226	5.057
650.118	3.22824
653.011	2.71131
655.904	5.65237
658.796	0.261321
661.689	1.32021
664.582	2.64717
667.474	2.10061
670.367	1.21806
673.26	4.87385
676.153	2.57346
679.045	4.2215
681.938	2.31965
684.831	4.64411
687.723	2.13576
690.616	0.367135
693.509	0.761021
696.401	0.164788
699.294	2.78732
702.187	1.7203
705.08	3.00723
707.972	3.73199
710.865	3.38844
713.758	5.36328
716.65	0.666978
719.543	0.855152
722.436	3.00463
725.328	3.65017
728.221	3.65066
731.114	4.85707
734.006	3.4662
736.899	1.67062
739.792	2.92911
742.685	2.94626
745.577	4.44376
748.47	0.826539
751.363	3.12912
754.255	1.48266
757.148	2.14319
760.041	2.25996
762.933	3.21567
765.826	3.54037
768.719	3.2873
771.612	3.55373
774.504	4.37059
777.397	2.74112
780.29	1.66043
783.182	1.94951
786.075	0.8926
788.968	2.69903
791.861	2.28002
794.753	0.073479
797.646	2.40437
800.539	1.731
803.431	1.35551
806.324	1.87463
809.217	1.55802
812.109	0.440649
815.002	0.400152
817.895	0.466715
820.788	1.7882
823.68	2.35526
826.573	1.68649
829.466	2.29898
832.358	1.2216
835.251	1.62585
838.144	1.49631
841.036	1.9843
843.929	2.98664
846.822	0.949439
849.715	2.58392
852.607	3.3961
855.5	1.17971
858.393	4.07669
861.285	4.71368
864.178	2.8682
867.071	3.98766
869.963	4.39952
872.856	2.86146
875.749	1.60951
878.641	4.45316
881.534	0.502447
884.427	2.18963
887.32	2.20901
890.212	4.57845
893.105	3.35759
895.998	4.58969
898.89	2.55076
901.783	3.64197
904.676	3.46265
907.568	2.76036
910.461	2.33627
913.354	1.27505
916.247	4.63027
919.139	3.2252
922.032	4.06089
924.925	2.04322
927.817	5.56496
930.71	5.94657
933.603	5.691
936.495	4.26192
939.388	4.81807
942.281	5.11535
945.174	8.05017
948.066	8.37065
950.959	6.6197
953.852	11.2384
956.744	8.55575
959.637	7.02775
962.53	7.17177
965.423	6.80269
968.315	4.45817
971.208	5.58698
974.101	1.56695
976.993	1.08265
979.886	4.65429
982.779	2.00289
985.671	1.57148
988.564	1.78748
991.457	6.92717
994.35	5.84441
997.242	3.88062
1000.13	3.87521
1003.03	1.79128
1005.92	2.8664
1008.81	2.96996
1011.71	4.19977
1014.6	2.60858
1017.49	1.12927
1020.38	2.03895
1023.28	0.513827
1026.17	3.83303
1029.06	0.388282
1031.95	2.00976
1034.85	1.01362
1037.74	0.534211
1040.63	3.22237
1043.53	0.401119
1046.42	0.252417
1049.31	1.79121
1052.2	1.45263
1055.1	1.9905
1057.99	2.18979
1060.88	0.602975
1063.77	0.617133
1066.67	0.851396
1069.56	0.407255
1072.45	1.86779
1075.35	0.010974
1078.24	1.51721
1081.13	1.73511
1084.02	3.64973
1086.92	1.57334
1089.81	1.07439
1092.7	2.70151
1095.59	4.60732
1098.49	2.54272
1101.38	1.72765
1104.27	0.320889
1107.16	1.15651
1110.06	4.42085
1112.95	2.15765
1115.84	2.24744
1118.74	2.2604
1121.63	1.12853
1124.52	2.63681
1127.41	0.258222
1130.31	0.57882
1133.2	3.05724
1136.09	3.99033
1138.98	3.5071
1141.88	6.14283
1144.77	4.76199
1147.66	5.73585
1150.56	5.4327
1153.45	6.10433
1156.34	4.00469
1159.23	3.87926
1162.13	6.74171
1165.02	5.06052
1167.91	2.00189
1170.8	4.04435
1173.7	4.26523
1176.59	2.91612
1179.48	2.48485
1182.38	4.39825
1185.27	4.20905
1188.16	1.39045
1191.05	1.55319
1193.95	3.31264
1196.84	0.906935
1199.73	4.21801
1202.62	3.10657
1205.52	2.94329
1208.41	1.02986
1211.3	1.68757
1214.19	2.87319
1217.09	5.03456
1219.98	4.31959
1222.87	3.24933
1225.77	4.19245
1228.66	2.31664
1231.55	2.16913
1234.44	2.51973
1237.34	2.72529
1240.23	3.97704
1243.12	1.32719
1246.01	2.21049
1248.91	4.55309
1251.8	3.12109
1254.69	3.87808
1257.59	3.35703
1260.48	3.8194
1263.37	2.32769
1266.26	6.85606
1269.16	2.8102
1272.05	1.05148
1274.94	1.27854
1277.83	4.45463
1280.73	4.81147
1283.62	1.62193
