Measurement: Raman, 780 nm, unoriented, Raman Data RAW
Mineral: Schneiderhohnite
Rruff sample: R050215
Ideal chemistry: Fe^2+^Fe^3+^_3_As^3+^_5_O_13_
Locality: Tsumeb mine, Tsumeb, Otavi District, Oshikoto, Namibia
Source: Marcus Origlieri
Description: Dark brown flattened single crystal
Raman shift (cm-1)	intensity
92.3535	220.862
95.7283	209.99
99.1031	180.288
102.478	168.465
105.853	167.751
109.228	161.084
112.602	157.315
115.977	151.758
119.352	141.059
122.727	135.281
126.102	135.564
129.476	136.01
132.851	136.773
136.226	134.853
139.601	136.768
142.976	133.456
146.351	129.87
149.725	128.89
153.1	126.607
156.475	124.18
159.85	122.132
163.225	121.926
166.6	119.452
169.974	120.515
173.349	124.277
176.724	124.525
180.099	122.093
183.474	119.501
186.848	115.719
190.223	112.952
193.598	111.456
196.973	108.481
200.348	105.115
203.722	101.183
207.097	98.1644
210.472	99.1963
213.847	99.9268
217.222	99.2787
220.596	102.269
223.971	106.499
227.346	108.994
230.721	111.228
234.096	114.269
237.471	114.698
240.845	112.072
244.22	109.908
247.595	107.478
250.97	104.623
254.345	100.187
257.719	100.9
261.094	102.057
264.469	99.7273
267.844	101.995
271.219	98.7754
274.594	101.779
277.968	97.7123
281.343	97.0035
284.718	91.7329
288.093	87.4984
291.468	85.0904
294.842	79.0599
298.217	77.6602
301.592	78.9781
304.967	72.6733
308.342	75.827
311.717	75.1103
315.091	71.655
318.466	71.6322
321.841	72.85
325.216	70.4062
328.591	73.2588
331.966	73.1399
335.34	71.62
338.715	72.6022
342.09	74.6979
345.465	70.7089
348.839	71.7859
352.214	71.2654
355.589	70.555
358.964	69.7669
362.339	70.2057
365.714	71.0232
369.088	69.433
372.463	69.1787
375.838	68.0905
379.213	67.4691
382.588	67.4856
385.962	66.7119
389.337	66.9619
392.712	68.5836
396.087	69.037
399.462	69.4063
402.837	72.8669
406.211	72.7933
409.586	72.6647
412.961	75.5657
416.336	71.5454
419.711	69.4718
423.086	68.6811
426.46	66.7184
429.835	65.5046
433.21	64.4232
436.585	62.9805
439.96	62.0716
443.334	64.8873
446.709	62.3884
450.084	60.5517
453.459	60.2036
456.834	60.9993
460.209	58.2897
463.583	61.2376
466.958	60.8133
470.333	60.1405
473.708	56.7271
477.083	59.4191
480.457	62.0378
483.832	60.2198
487.207	60.3583
490.582	59.8075
493.957	60.6166
497.332	60.1387
500.706	60.7127
504.081	58.647
507.456	59.1808
510.831	60.2694
514.206	57.4752
517.58	56.7184
520.955	56.7469
524.33	57.8281
527.705	59.2635
531.08	59.5658
534.455	61.1857
537.829	62.5945
541.204	61.9311
544.579	60.325
547.954	60.29
551.329	58.912
554.703	58.0185
558.078	58.7249
561.453	60.7684
564.828	59.3749
568.203	59.1755
571.577	58.1868
574.952	58.4608
578.327	60.0542
581.702	59.1886
585.077	59.8017
588.452	57.5374
591.826	59.0748
595.201	58.0384
598.576	56.9968
601.951	58.0972
605.326	55.6356
608.7	56.9835
612.075	55.6003
615.45	52.3131
618.825	52.7052
622.2	50.4896
625.574	49.7967
628.949	48.8199
632.324	48.2045
635.699	47.3143
639.074	46.4856
642.448	50.0953
645.823	48.1812
649.198	50.4766
652.573	46.4158
655.948	48.8867
659.323	49.0087
662.697	49.1923
666.072	49.1297
669.447	49.886
672.822	50.3445
676.197	50.0578
679.572	50.5045
682.946	49.6224
686.321	50.4229
689.696	49.13
693.071	49.9613
696.446	49.4534
699.82	51.5761
703.195	50.0529
706.57	49.4124
709.945	48.8194
713.32	50.6781
716.694	48.4987
720.069	48.7213
723.444	49.3008
726.819	48.7528
730.194	46.374
733.569	47.3225
736.943	47.7775
740.318	47.1945
743.693	46.4851
747.068	45.8272
750.443	46.6946
753.817	46.4877
757.192	45.83
760.567	48.1204
763.942	48.3072
767.317	48.1146
770.692	47.8224
774.066	47.8766
777.441	47.6718
780.816	49.6477
784.191	50.8795
787.566	45.8393
790.941	47.3186
794.315	46.9186
797.69	45.932
801.065	50.1433
804.44	48.526
807.815	46.5374
811.189	46.4474
814.564	46.3687
817.939	45.2668
821.314	47.3675
824.689	47.2529
828.063	45.3703
831.438	46.5375
834.813	43.858
838.188	46.3418
841.563	47.6156
844.938	46.0906
848.312	44.6205
851.687	42.6324
855.062	44.7276
858.437	41.6969
861.812	42.8771
865.187	42.6064
868.561	41.5262
871.936	39.9758
875.311	42.6668
878.686	40.4935
882.061	41.5237
885.435	40.9794
888.81	39.049
892.185	40.2402
895.56	38.7241
898.935	39.8137
902.309	37.7626
905.684	35.1865
909.059	36.6059
912.434	36.7653
915.809	38.1953
919.183	35.2021
922.558	34.7818
925.933	36.0535
929.308	35.7716
932.683	34.0244
936.058	35.8931
939.432	33.2163
942.807	33.0632
946.182	32.589
949.557	32.6108
952.932	32.7023
956.307	32.971
959.681	32.0481
963.056	33.0287
966.431	32.2206
969.806	33.4501
973.181	32.2808
976.555	32.4439
979.93	30.3126
983.305	31.1885
986.68	30.5491
990.055	31.4441
993.429	31.9269
996.804	32.3863
1000.18	32.4492
1003.55	31.3166
1006.93	33.0208
1010.3	31.9977
1013.68	31.3348
1017.05	31.8885
1020.43	31.5855
1023.8	33.219
1027.18	30.9599
1030.55	31.5113
1033.93	30.6048
1037.3	30.594
1040.68	32.2956
1044.05	31.9135
1047.43	29.5709
1050.8	29.8078
1054.18	31.5277
1057.55	29.953
1060.93	31.9844
1064.3	29.7853
1067.67	30.7344
1071.05	30.9878
1074.42	29.8938
1077.8	28.2532
1081.17	30.6857
1084.55	29.9907
1087.92	29.2271
1091.3	28.5295
1094.67	30.5092
1098.05	29.6388
1101.42	29.7132
1104.8	29.0667
1108.17	28.4106
1111.55	28.0397
1114.92	29.545
1118.3	27.7891
1121.67	29.9306
1125.05	30.534
1128.42	27.1567
1131.8	28.5063
1135.17	29.6675
1138.55	27.9082
1141.92	26.859
1145.3	27.1449
1148.67	27.8814
1152.05	28.9961
1155.42	26.1329
1158.8	28.2794
1162.17	28.2283
1165.55	28.5975
1168.92	27.989
1172.3	26.9871
1175.67	28.2426
1179.04	27.8315
1182.42	27.168
1185.79	26.5498
1189.17	27.8044
1192.54	29.5511
1195.92	28.0209
1199.29	27.5016
1202.67	30.2011
1206.04	27.8589
1209.42	28.5844
1212.79	26.6699
1216.17	26.4336
1219.54	28.5163
1222.92	28.5546
1226.29	27.4898
1229.67	27.0197
1233.04	27.2746
1236.42	26.6409
1239.79	27.4505
1243.17	27.4929
1246.54	27.4426
1249.92	28.4674
1253.29	26.6772
1256.66	27.6749
1260.04	27.815
1263.41	26.3772
1266.79	29.3938
1270.16	26.3954
1273.54	26.4045
1276.91	26.8018
1280.29	28.4598
1283.66	26.3814
