Measurement: Raman, 780 nm, unoriented, Raman Data Processed
Mineral: Schorl
Rruff sample: R050304
Ideal chemistry: NaFe^2+^_3_Al_6_(Si_6_O_18_)(BO_3_)_3_(OH)_3_OH
Locality: Erongo Mountains, Namibia
Source: Eugene Schlepp
Description: Black prismatic crystal associated with quartz and orthoclase
Measured chemistry: (Na_0.86_[box]_0.14_)_Σ=1_(Fe^2+^_2.68_Mg_0.22_Al_0.06_Ti_0.04_)_Σ=3_Al_6.00_(BO_3_)_3_Si_6.00_O_18_(OH)_4_
Raman shift (cm-1)	intensity
145.074	0
147.967	1.22301
150.859	1.05249
153.752	1.43805
156.645	0.823547
159.538	3.20546
162.43	1.25758
165.323	2.12285
168.216	1.07234
171.108	2.74725
174.001	1.15749
176.894	2.67046
179.786	0.729752
182.679	0.06691
185.572	0.462616
188.465	0.397667
191.357	0.723541
194.25	0.624352
197.143	0.284767
200.035	0.765732
202.928	0.506744
205.821	2.70631
208.714	2.43686
211.606	2.41498
214.499	3.30095
217.392	3.81527
220.284	3.53989
223.177	3.71131
226.07	4.40875
228.962	3.95351
231.855	3.76498
234.748	3.9432
237.641	3.553
240.533	3.63445
243.426	3.4641
246.319	1.96611
249.211	1.61784
252.104	1.33842
254.997	1.68592
257.889	0.064453
260.782	0.113609
263.675	1.39773
266.567	0.32605
269.46	0.495514
272.353	0.818756
275.246	0.723305
278.138	0.512619
281.031	1.09287
283.924	1.09277
286.816	1.0612
289.709	0.233574
292.602	0.552795
295.495	1.05381
298.387	0.405884
301.28	0.043747
304.173	1.66332
307.065	1.21104
309.958	0.697601
312.851	1.68166
315.743	1.68133
318.636	1.69432
321.529	1.30086
324.421	2.58222
327.314	2.26507
330.207	3.9819
333.1	4.2443
335.992	4.43266
338.885	5.04002
341.778	4.90153
344.67	6.63619
347.563	7.8138
350.456	7.68287
353.349	8.02656
356.241	10.0291
359.134	10.5741
362.027	11.1455
364.919	10.2402
367.812	8.79606
370.705	6.89136
373.597	5.52046
376.49	4.58507
379.383	3.67742
382.276	2.73999
385.168	1.60801
388.061	1.54038
390.954	2.11655
393.846	0.833168
396.739	2.00102
399.632	1.56327
402.524	0.506714
405.417	1.74389
408.31	1.65654
411.202	1.0671
414.095	0.851707
416.988	0.28508
419.881	0.654068
422.773	1.07629
425.666	0.561928
428.559	0.007469
431.451	0.054886
434.344	0.521103
437.237	0.060135
440.13	0.983223
443.022	0.185135
445.915	1.16573
448.808	0.298996
451.7	1.01442
454.593	0.581871
457.486	0.13118
460.378	0.764618
463.271	1.29895
466.164	2.20268
469.057	1.26202
471.949	1.3985
474.842	1.921
477.735	2.83496
480.627	1.66556
483.52	2.75195
486.413	1.90025
489.305	2.88615
492.198	2.17683
495.091	1.93671
497.983	2.84634
500.876	3.19928
503.769	3.26455
506.662	3.43152
509.554	3.00329
512.447	4.11039
515.34	3.6023
518.232	4.17783
521.125	4.10484
524.018	4.36225
526.91	4.48393
529.803	4.91557
532.696	5.3519
535.589	5.02786
538.481	5.13712
541.374	4.32876
544.267	4.19293
547.159	4.34321
550.052	4.75312
552.945	3.77702
555.837	3.1358
558.73	3.59795
561.623	2.77515
564.516	2.13999
567.408	2.64962
570.301	2.39392
573.194	1.71945
576.086	2.05395
578.979	0.990486
581.872	0.295151
584.764	0.380112
587.657	0.657013
590.55	0.928055
593.443	0.651642
596.335	0.150566
599.228	0.139389
602.121	0.515144
605.013	0.24733
607.906	0.549789
610.799	0.660652
613.692	0.926979
616.584	0.693375
619.477	1.38943
622.37	2.59404
625.262	2.49857
628.155	3.17906
631.048	2.64526
633.94	2.5694
636.833	1.54191
639.726	1.80109
642.619	1.24671
645.511	1.11901
648.404	0.727032
651.297	0.86847
654.189	0.608271
657.082	0.515783
659.975	0.721722
662.867	0.992744
665.76	1.47097
668.653	1.42044
671.545	1.40199
674.438	2.12699
677.331	1.97831
680.224	1.78632
683.116	1.53727
686.009	1.93715
688.902	1.40116
691.794	3.21182
694.687	3.91391
697.58	2.7356
700.472	2.27047
703.365	0.957474
706.258	0.798981
709.151	0.018696
712.043	0.49107
714.936	0.246849
717.829	0.251469
720.721	0.365002
723.614	0.003288
726.507	1.27312
729.399	0.002228
732.292	0.364166
735.185	1.69941
738.078	1.8257
740.97	2.58059
743.863	3.06924
746.756	3.19965
749.648	3.41071
752.541	4.11333
755.434	4.22285
758.327	3.8976
761.219	3.75406
764.112	3.82837
767.005	3.67269
769.897	3.85524
772.79	4.08246
775.683	3.96093
778.575	3.21754
781.468	2.94005
784.361	2.5775
787.254	2.90137
790.146	2.62363
793.039	2.25262
795.932	2.45552
798.824	1.17683
801.717	1.20616
804.61	2.06563
807.502	1.55875
810.395	0.855286
813.288	1.05841
816.181	0.03014
819.073	0.54277
821.966	0.241196
824.859	0.116444
827.751	0.486004
830.644	0.708057
833.537	0.011902
836.429	1.04637
839.322	0.751476
842.215	0.890751
845.107	1.10361
848	1.20095
850.893	0.617935
853.786	1.15616
856.678	1.1603
859.571	1.18572
862.464	1.26479
865.356	2.4382
868.249	2.00668
871.142	1.041
874.034	1.60014
876.927	0.731895
879.82	0.639641
882.713	1.23807
885.605	1.87212
888.498	0.088116
891.391	0.647709
894.283	0.445198
897.176	0.246792
900.069	0.759079
902.962	0.046001
905.854	0.214909
908.747	0.121693
911.64	0.38858
914.532	0.36327
917.425	0.271816
920.318	0.722393
923.21	0.04142
926.103	0.30032
928.996	0.246861
931.888	0.090576
934.781	0.618706
937.674	0.271076
940.567	1.26536
943.459	1.4051
946.352	1.01498
949.245	1.14709
952.137	0.983383
955.03	1.24834
957.923	1.66643
960.815	1.45852
963.708	0.904541
966.601	0.495319
969.494	0.936691
972.386	0.859684
975.279	1.0082
978.172	0.446777
981.064	1.04151
983.957	1.49704
986.85	1.37746
989.742	1.1713
992.635	1.11631
995.528	1.61713
998.42	0.937752
1001.31	1.70474
1004.21	0.502235
1007.1	2.06215
1009.99	1.64288
1012.88	1.69834
1015.78	1.69919
1018.67	1.88743
1021.56	1.73338
1024.45	2.03484
1027.35	2.42097
1030.24	2.07101
1033.13	3.0183
1036.03	2.01099
1038.92	3.07809
1041.81	3.24069
1044.7	2.69789
1047.6	3.26852
1050.49	2.65204
1053.38	2.76426
1056.28	1.4249
1059.17	1.32949
1062.06	1.94265
1064.95	0.933903
1067.85	0.997715
1070.74	1.28281
1073.63	0.627903
1076.52	0.938713
1079.42	0.386219
1082.31	0.736427
1085.2	0.878922
1088.09	0.772465
1090.99	0.264553
1093.88	0.346066
1096.77	0.287125
1099.66	0.598465
1102.56	0.012062
1105.45	0.196266
1108.34	0.781811
1111.24	0.548397
1114.13	0.275185
1117.02	0.014191
1119.91	0.405315
1122.81	0.192429
1125.7	0.210167
1128.59	0.476501
1131.48	0.045761
1134.38	0.49625
1137.27	0.109825
1140.16	1.04892
1143.06	0.322311
1145.95	0.412159
1148.84	0.674709
1151.73	0.966873
1154.63	0.374172
1157.52	0.561256
1160.41	0.427261
1163.3	0.841679
1166.2	0.530281
1169.09	0.704212
1171.98	0.700623
1174.88	0.840366
1177.77	0.34494
1180.66	0.866909
1183.55	1.22087
1186.45	0.258003
1189.34	0.562752
1192.23	0.778431
1195.12	0.544308
1198.02	0.478188
1200.91	0.006218
1203.8	0.513584
1206.69	0.445038
1209.59	0.162987
1212.48	0.57019
1215.37	0.588474
1218.27	0.589355
1221.16	0.86343
1224.05	0.876564
1226.94	0.746834
1229.84	0.434792
1232.73	0.969357
1235.62	0.966911
1238.52	1.28765
1241.41	0.646587
1244.3	0.505817
1247.19	0.869251
1250.09	0.11097
1252.98	0.948395
1255.87	0.606548
1258.76	1.35871
1261.66	0.548496
1264.55	0.240826
1267.44	0.38995
1270.33	0.968655
1273.23	0.086826
1276.12	0.644024
1279.01	0.553402
1281.9	0.511635
1284.8	0.112022
