Measurement: Raman, 785 nm, unoriented, Raman Data Processed
Mineral: Schreibersite
Rruff sample: R070239
Ideal chemistry: (Fe,Ni,Cr)_3_P
Locality: Sao Juliao de Moreira meteorite, Ponte de Lima, Viana do Castelo district, Portugal
Source: Michael Scott
Description: Silvery fragments with slightly brassy luster, co-type specimen
Raman shift (cm-1)	intensity
155.25	0
158.142	0.821899
161.035	20.5409
163.928	77.0767
166.821	144.999
169.713	129.97
172.606	105.909
175.499	37.9392
178.391	12.2821
181.284	15.9862
184.177	22.9244
187.069	58.4341
189.962	66.8887
192.855	94.5618
195.748	88.0222
198.64	71.5282
201.533	76.0394
204.426	74.4662
207.318	37.6002
210.211	39.6509
213.104	11.9253
215.996	1.57495
218.889	28.8484
221.782	37.9545
224.674	47.5255
227.567	0.059448
230.46	41.8658
233.353	28.2411
236.245	52.0768
239.138	21.0324
242.031	12.6479
244.923	20.0015
247.816	11.2434
250.709	40.7925
253.601	46.215
256.494	38.0699
259.387	55.3137
262.28	25.1423
265.172	6.62366
268.065	28.3715
270.958	29.1791
273.85	5.3595
276.743	28.026
279.636	5.86633
282.529	40.9858
285.421	22.5836
288.314	18.5007
291.207	24.6705
294.099	39.0255
296.992	38.9009
299.885	26.184
302.777	42.9918
305.67	22.7129
308.563	48.3123
311.455	58.3599
314.348	6.77319
317.241	16.6405
320.134	2.59827
323.026	30.8273
325.919	26.1664
328.812	26.0084
331.704	34.8811
334.597	36.0238
337.49	10.9287
340.382	15.3197
343.275	50.7368
346.168	2.19043
349.061	16.1245
351.953	15.9651
354.846	9.27624
357.739	0.972656
360.631	7.39075
363.524	5.25989
366.417	25.2048
369.31	54.0663
372.202	30.3146
375.095	44.2268
377.988	59.1757
380.88	54.0177
383.773	25.3153
386.666	59.4752
389.558	21.6587
392.451	1.22607
395.344	39.7375
398.236	29.6931
401.129	2.4447
404.022	46.6591
406.915	30.2107
409.807	2.51965
412.7	26.9824
415.593	52.3756
418.485	41.2013
421.378	49.5054
424.271	30.7216
427.163	27.5184
430.056	37.6049
432.949	13.7521
435.842	27.7241
438.734	53.4498
441.627	36.6773
444.52	30.4286
447.412	36.2236
450.305	15.1996
453.198	3.1886
456.091	5.06702
458.983	18.8208
461.876	49.9841
464.769	33.0629
467.661	31.9911
470.554	44.8264
473.447	16.3871
476.339	24.6903
479.232	6.88989
482.125	47.8757
485.017	53.3684
487.91	22.1326
490.803	12.8973
493.696	21.8835
496.588	16.1992
499.481	7.66833
502.374	36.5785
505.266	58.5083
508.159	56.1543
511.052	38.0214
513.944	32.7913
516.837	51.2953
519.73	1.33569
522.623	8.6405
525.515	42.7717
528.408	6.93298
531.301	28.3612
534.193	14.4567
537.086	22.1727
539.979	39.2555
542.871	29.3719
545.764	42.636
548.657	59.7743
551.55	49.4504
554.442	4.1687
557.335	41.9243
560.228	18.4618
563.12	49.1935
566.013	37.3607
568.906	14.2236
571.798	0.347168
574.691	0.371826
577.584	8.9458
580.477	32.6158
583.369	29.1426
586.262	30.0952
589.155	40.9656
592.047	23.781
594.94	23.8048
597.833	48.4623
600.726	31.6436
603.618	40.3823
606.511	57.3449
609.404	41.2353
612.296	36.4667
615.189	10.9924
618.082	69.0618
620.974	9.27576
623.867	53.3472
626.76	19.468
629.653	65.9874
632.545	18.2323
635.438	58.386
638.331	46.502
641.223	38.168
644.116	39.6791
647.009	48.7886
649.901	40.8665
652.794	39.4425
655.687	52.7689
658.58	28.7328
661.472	4.13611
664.365	27.6973
667.258	36.1694
670.15	29.7498
673.043	29.6426
675.936	51.0677
678.828	32.2568
681.721	36.3453
684.614	30.9501
687.506	21.6621
690.399	54.7105
693.292	21.4081
696.185	66.2956
699.077	65.8732
701.97	3.32776
704.863	31.213
707.755	33.8832
710.648	56.2112
713.541	71.0204
716.433	34.261
719.326	46.9662
722.219	53.552
725.112	34.8059
728.004	5.29565
730.897	30.9729
733.79	20.2341
736.682	44.471
739.575	10.378
742.468	23.5928
745.361	14.2781
748.253	19.406
751.146	31.0424
754.039	46.014
756.931	7.40125
759.824	23.278
762.717	32.3032
765.609	8.08862
768.502	50.4893
771.395	50.933
774.288	16.5643
777.18	12.137
780.073	36.2633
782.966	12.9734
785.858	16.9528
788.751	12.8467
791.644	4.0979
794.536	39.2338
797.429	43.4802
800.322	28.5641
803.215	33.2225
806.107	47.7638
809	41.0483
811.893	7.65784
814.785	0.48584
817.678	15.1965
820.571	26.3132
823.463	30.9805
826.356	20.5338
829.249	2.17358
832.141	3.70776
835.034	18.9573
837.927	51.608
840.82	5.88269
843.712	5.39246
846.605	41.2172
849.498	29.2388
852.39	28.6838
855.283	18.4197
858.176	25.0715
861.068	36.5271
863.961	65.7469
866.854	25.0105
869.747	41.6793
872.639	14.0784
875.532	62.1935
878.425	63.1293
881.317	42.0995
884.21	37.285
887.103	27.0708
889.995	6.70105
892.888	18.7009
895.781	28.6043
898.674	4.51599
901.566	21.641
904.459	17.6958
907.352	46.757
910.244	37.5791
913.137	26.5206
916.03	22.739
918.923	51.8774
921.815	43.4039
924.708	18.4393
927.601	28.3429
930.493	13.3496
933.386	42.925
936.279	14.6628
939.171	50.2444
942.064	38.7277
944.957	80.7482
947.85	43.9795
950.742	43.632
953.635	33.233
956.528	31.13
959.42	69.6935
962.313	23.5992
965.206	42.1221
968.098	56.3054
970.991	8.01355
973.884	80.6559
976.777	39.3235
979.669	35.2452
982.562	34.0273
985.455	58.1388
988.347	51.3917
991.24	54.2062
994.133	43.942
997.025	64.554
999.918	41.6161
1002.81	31.8391
1005.7	35.556
1008.6	12.2523
1011.49	8.13635
1014.38	23.6298
1017.27	43.8284
1020.17	59.6993
1023.06	41.7812
1025.95	53.4368
1028.85	20.1177
1031.74	39.9984
1034.63	42.4402
1037.52	19.6898
1040.42	26.8118
1043.31	23.0062
1046.2	0.646606
1049.09	9.58643
1051.99	35.6879
1054.88	23.4292
1057.77	28.8955
1060.66	70.8539
1063.56	39.8595
1066.45	19.4888
1069.34	42.5012
1072.24	15.4391
1075.13	59.2012
1078.02	1.15393
1080.91	8.27771
1083.81	15.6386
1086.7	33.0892
1089.59	27.981
1092.48	52.4119
1095.38	50.1743
1098.27	5.38428
1101.16	36.9453
1104.06	6.55103
1106.95	28.8936
1109.84	33.9347
1112.73	34.5022
1115.63	13.6912
1118.52	9.25842
1121.41	42.4861
1124.3	1.03699
1127.2	4.73315
1130.09	38.4352
1132.98	41.5793
1135.88	4.2334
1138.77	22.8301
1141.66	50.7579
1144.55	34.4797
1147.45	62.3684
1150.34	41.7678
1153.23	6.87488
1156.12	4.08777
1159.02	25.9951
1161.91	50.6245
1164.8	7.34192
1167.69	56.3239
1170.59	50.7317
1173.48	29.3405
1176.37	22.1752
1179.27	47.6849
1182.16	59.5857
1185.05	32.7739
1187.94	38.9764
1190.84	33.4796
1193.73	26.1106
1196.62	24.4445
1199.51	32.0038
1202.41	7.41418
1205.3	36.292
1208.19	29.2838
1211.09	41.8198
1213.98	48.7076
1216.87	61.7369
1219.76	45.3507
1222.66	26.4149
1225.55	23.0409
1228.44	52.9061
1231.33	18.49
1234.23	47.3236
1237.12	34.1406
1240.01	4.12781
1242.9	0
