Measurement: Raman, 532 nm, unoriented, Raman Data Processed
Mineral: Schreibersite
Rruff sample: R070239
Ideal chemistry: (Fe,Ni,Cr)_3_P
Locality: Sao Juliao de Moreira meteorite, Ponte de Lima, Viana do Castelo district, Portugal
Source: Michael Scott
Description: Silvery fragments with slightly brassy luster, co-type specimen
Raman shift (cm-1)	intensity
156.894	0
160.268	2.7738
163.643	26.7999
167.018	60.254
170.393	45.4351
173.768	38.9017
177.143	46.8151
180.517	36.8251
183.892	39.345
187.267	47.0438
190.642	46.0797
194.017	43.1727
197.391	36.5134
200.766	50.5024
204.141	47.9321
207.516	66.2258
210.891	33.0033
214.266	47.2463
217.64	28.2507
221.015	37.7312
224.39	16.3136
227.765	33.3983
231.14	7.58948
234.514	31.2747
237.889	30.0736
241.264	23.0674
244.639	38.2947
248.014	17.8946
251.388	42.0663
254.763	26.8202
258.138	35.3198
261.513	0.432007
264.888	18.5149
268.263	1.8667
271.637	5.02161
275.012	6.52502
278.387	10.6902
281.762	4.36536
285.137	31.2763
288.512	9.01184
291.886	38.5367
295.261	5.22852
298.636	41.8901
302.011	2.19861
305.386	9.73828
308.76	59.7123
312.135	0.625
315.51	22.4886
318.885	23.8339
322.26	48.1244
325.635	28.3043
329.009	25.7888
332.384	13.2918
335.759	9.86011
339.134	36.6056
342.509	14.2784
345.883	22.2064
349.258	19.6138
352.633	30.8751
356.008	20.3143
359.383	45.7137
362.757	48.0225
366.132	8.68701
369.507	26.9325
372.882	22.1106
376.257	26.6271
379.632	40.8055
383.006	37.5301
386.381	31.9365
389.756	10.7142
393.131	20.5569
396.506	21.2197
399.88	9.19519
403.255	35.2854
406.63	33.7932
410.005	2.65662
413.38	38.7496
416.755	28.8308
420.129	27.6949
423.504	52.964
426.879	25.407
430.254	20.7733
433.629	45.5956
437.003	34.7915
440.378	13.391
443.753	25.7222
447.128	62.3332
450.503	29.218
453.878	25.266
457.252	9.40906
460.627	28.0167
464.002	25.4423
467.377	41.5497
470.752	43.3332
474.127	31.764
477.501	51.4846
480.876	16.8693
484.251	30.0044
487.626	81.0293
491.001	25.6757
494.375	28.5646
497.75	43.4713
501.125	27.2413
504.5	13.8096
507.875	3.95166
511.25	33.9707
514.624	10.3506
517.999	16.9128
521.374	2.27661
524.749	16.3377
528.124	13.2334
531.498	22.4591
534.873	3.93262
538.248	41.5665
541.623	12.1349
544.998	24.9648
548.372	23.6191
551.747	15.4279
555.122	41.5911
558.497	49.129
561.872	8.32251
565.247	44.7741
568.621	33.6796
571.996	14.1393
575.371	14.2678
578.746	15.522
582.121	46.9402
585.495	25.9179
588.87	19.4303
592.245	19.4403
595.62	8.93994
598.995	3.89062
602.37	17.4568
605.744	11.2498
609.119	7.25269
612.494	35.2594
615.869	26.1686
619.244	47.9225
622.619	22.2596
625.993	23.5223
629.368	22.0515
632.743	2.39905
636.118	21.6804
639.493	65.6439
642.867	47.1666
646.242	28.0281
649.617	18.8242
652.992	60.7284
656.367	67.5456
659.741	55.9061
663.116	47.8235
666.491	49.5908
669.866	42.7966
673.241	29.6054
676.616	12.1931
679.99	14.7723
683.365	61.2347
686.74	14.8898
690.115	51.2152
693.49	17.115
696.865	13.3362
700.239	46.4448
703.614	44.4404
706.989	19.1873
710.364	44.6799
713.739	5.28369
717.113	4.54443
720.488	26.1919
723.863	25.7537
727.238	21.033
730.613	20.3137
733.987	17.3152
737.362	46.407
740.737	57.1311
744.112	25.4666
747.487	26.9121
750.862	22.532
754.236	36.9514
757.611	53.7156
760.986	33.4243
764.361	46.8586
767.736	12.4351
771.111	49.8784
774.485	43.8513
777.86	39.7839
781.235	48.8543
784.61	1.72998
787.985	15.4087
791.359	19.0227
794.734	30.24
798.109	38.4836
801.484	31.1487
804.859	32.687
808.234	8.19238
811.608	13.4082
814.983	27.4888
818.358	48.0356
821.733	61.0418
825.108	2.54394
828.482	20.1106
831.857	23.7283
835.232	6.9292
838.607	1.3811
841.982	57.5418
845.356	0.638916
848.731	45.3
852.106	40.7632
855.481	38.627
858.856	62.3164
862.231	47.1819
865.605	21.366
868.98	38.572
872.355	27.0564
875.73	28.072
879.105	50.0247
882.48	31.3381
885.854	26.1753
889.229	49.1853
892.604	22.9458
895.979	12.6575
899.354	11.4582
902.729	25.3777
906.103	33.8059
909.478	3.35205
912.853	13.8916
916.228	33.4541
919.602	48.3396
922.977	13.7966
926.352	6.95386
929.727	29.5832
933.102	53.1362
936.477	39.3242
939.851	46.2398
943.226	14.4822
946.601	25.4668
949.976	30.6355
953.351	18.4443
956.726	35.054
960.1	42.8274
963.475	37.7996
966.85	59.271
970.225	0.908936
973.6	37.3169
976.974	40.8481
980.349	19.248
983.724	38.3899
987.099	16.9094
990.474	42.5527
993.848	6.62476
997.223	19.9898
1000.6	0.77002
1003.97	16.2229
1007.35	53.0403
1010.72	43.0898
1014.1	12.0161
1017.47	37.1609
1020.85	24.0088
1024.22	13.2178
1027.6	29.8828
1030.97	34.5906
1034.35	6.00464
1037.72	24.4512
1041.1	41.6819
1044.47	58.3957
1047.85	44.9739
1051.22	41.5796
1054.6	63.3113
1057.97	32.134
1061.35	1.33911
1064.72	25.2498
1068.09	18.7268
1071.47	12.177
1074.84	6.66602
1078.22	24.9539
1081.59	2.36157
1084.97	43.0364
1088.34	42.5134
1091.72	53.645
1095.09	11.3452
1098.47	12.7888
1101.84	21.5862
1105.22	21.9544
1108.59	23.7986
1111.97	35.0562
1115.34	47.1043
1118.72	73.6882
1122.09	63.5207
1125.47	6.36182
1128.84	32.9563
1132.22	33.928
1135.59	65.4546
1138.97	44.0037
1142.34	38.9329
1145.71	46.4719
1149.09	51.332
1152.46	33.9832
1155.84	32.8372
1159.21	73.0488
1162.59	31.8325
1165.96	24.79
1169.34	50.6411
1172.71	74.4451
1176.09	58.3984
1179.46	34.3323
1182.84	37.8079
1186.21	22.1968
1189.59	23.2082
1192.96	29.1946
1196.34	32.4021
1199.71	35.2419
1203.09	49.8091
1206.46	40.6799
1209.84	58.5466
1213.21	26.144
1216.59	63.8733
1219.96	43.0596
1223.34	33.4148
1226.71	53.5979
1230.09	59.4714
1233.46	16.5525
1236.84	64.0024
1240.21	39.2153
1243.59	15.0464
1246.96	52.2942
1250.34	33.2625
1253.71	54.293
1257.08	64.8603
1260.46	31.1902
1263.83	75.8704
1267.21	57.1438
1270.58	40.7683
1273.96	55.1348
1277.33	56.0945
1280.71	37.5491
1284.08	36.5418
1287.46	51.2278
1290.83	52.5977
1294.21	32.554
1297.58	36.3945
1300.96	23.1401
1304.33	41.9727
1307.71	1.39819
1311.08	3.70801
1314.46	20.198
