Measurement: Raman, 780 nm, unoriented, Raman Data Processed
Mineral: Schuilingite-(Nd)
Rruff sample: R100063
Ideal chemistry: Cu^2+^Pb^2+^Nd^3+^(CO_3_)_3_(OH)1.5H_2_O
Locality: Kasompi, 70 km. west of Kambove, Katanga, Congo
Source: William W Pinch
Description: Azure-blue, prismatic crystals. Same sample as used by Schindler and Hawthorne (1999) for structure determination
Raman shift (cm-1)	intensity
122.871	0
126.246	0.376549
129.62	0.511501
132.995	1.45546
136.37	2.7328
139.745	3.16615
143.12	2.2439
146.494	4.16934
149.869	2.99478
153.244	3.46678
156.619	1.9216
159.994	2.60455
163.369	2.83548
166.743	2.2919
170.118	3.49958
173.493	1.85868
176.868	0.821846
180.243	1.16364
183.618	1.28977
186.992	0.586643
190.367	2.644
193.742	1.55181
197.117	2.01078
200.492	2.63757
203.866	3.66449
207.241	3.47108
210.616	5.16563
213.991	6.06067
217.366	7.84561
220.74	6.11128
224.115	6.26679
227.49	7.11192
230.865	4.92561
234.24	6.47679
237.615	6.4729
240.989	3.44673
244.364	3.29818
247.739	3.57885
251.114	2.885
254.489	2.52427
257.863	1.8397
261.238	1.09513
264.613	1.36362
267.988	3.47182
271.363	1.74751
274.738	0.869299
278.112	0.286726
281.487	0.729115
284.862	0.16573
288.237	1.34807
291.612	0.873814
294.986	0.297405
298.361	3.05498
301.736	1.27521
305.111	0.417074
308.486	1.88069
311.861	3.0149
315.235	0.981895
318.61	0.820295
321.985	0.807144
325.36	1.97148
328.735	1.29336
332.109	2.08159
335.484	0.213293
338.859	1.35092
342.234	0.483915
345.609	1.80397
348.984	0.506636
352.358	1.26858
355.733	1.91857
359.108	2.40263
362.483	1.80271
365.858	1.50528
369.233	1.37358
372.607	2.32393
375.982	0.471529
379.357	0.313097
382.732	0.320108
386.106	2.39057
389.481	1.22744
392.856	1.99842
396.231	3.50546
399.606	3.71545
402.981	3.52256
406.355	3.66689
409.73	3.10889
413.105	1.5873
416.48	1.7935
419.855	1.74885
423.229	2.22664
426.604	1.65528
429.979	1.59011
433.354	2.11047
436.729	0.623829
440.104	1.30024
443.478	1.77688
446.853	1.75425
450.228	0.227011
453.603	0.548519
456.978	0.401184
460.353	2.21368
463.727	3.40715
467.102	1.58504
470.477	2.54692
473.852	0.493473
477.227	2.24468
480.601	0.502666
483.976	1.26402
487.351	0.270119
490.726	1.54448
494.101	1.80228
497.476	0.045868
500.85	1.27464
504.225	1.85231
507.6	0.898596
510.975	0.907875
514.35	0.041645
517.724	0.309803
521.099	0.43786
524.474	0.857386
527.849	0.007418
531.224	1.00551
534.598	1.94998
537.973	0.512903
541.348	1.04327
544.723	1.56373
548.098	1.29818
551.472	0.663847
554.847	1.53787
558.222	1.95223
561.597	1.42843
564.972	2.2046
568.347	0.583319
571.721	1.41089
575.096	1.76374
578.471	2.48232
581.846	2.35029
585.221	1.7695
588.596	1.47366
591.97	0.927824
595.345	0.178123
598.72	0.87487
602.095	1.01446
605.47	0.381523
608.845	1.77447
612.219	1.32884
615.594	1.32309
618.969	0.87805
622.344	0.553343
625.719	0.524742
629.093	0.680851
632.468	1.91371
635.843	2.67897
639.218	2.11095
642.593	0.823181
645.967	0.058708
649.342	1.67777
652.717	2.335
656.092	2.88049
659.467	0.799631
662.842	0.95656
666.216	3.24354
669.591	0.597204
672.966	2.9012
676.341	2.39805
679.716	2.01623
683.091	2.62737
686.465	1.3361
689.84	3.64241
693.215	1.01071
696.59	1.81563
699.965	3.12184
703.339	1.47329
706.714	3.07893
710.089	2.93174
713.464	1.78118
716.839	3.59218
720.213	2.79006
723.588	0.827688
726.963	2.45717
730.338	2.63914
733.713	2.60704
737.087	2.37096
740.462	1.82054
743.837	2.3822
747.212	2.48791
750.587	0.437365
753.962	0.379318
757.336	0.213457
760.711	0.41519
764.086	1.91752
767.461	2.2829
770.836	0.987133
774.211	1.54709
777.585	0.439381
780.96	2.45671
784.335	1.62221
787.71	1.31019
791.085	0.909561
794.459	0.944738
797.834	1.16386
801.209	2.83154
804.584	1.47006
807.959	2.30461
811.333	2.33112
814.708	0.686928
818.083	1.06204
821.458	2.73884
824.833	1.92327
828.208	1.63964
831.582	1.146
834.957	1.93278
838.332	1.78129
841.707	2.32493
845.082	3.03417
848.457	1.80152
851.831	2.56792
855.206	2.24351
858.581	0.939644
861.956	0.740665
865.331	1.7029
868.705	0.043821
872.08	0.973713
875.455	1.54095
878.83	0.824848
882.205	1.83291
885.58	0.661949
888.954	0.456366
892.329	1.30265
895.704	1.46409
899.079	1.4432
902.454	0.958939
905.828	1.33114
909.203	1.25085
912.578	1.99909
915.953	0.342379
919.328	1.86571
922.702	1.82395
926.077	1.07863
929.452	0.207651
932.827	0.935921
936.202	1.05993
939.577	2.08223
942.951	0.097195
946.326	0.758425
949.701	0.066893
953.076	1.06717
956.451	1.14488
959.825	1.35149
963.2	1.24615
966.575	0.574631
969.95	1.36263
973.325	2.12043
976.699	2.1031
980.074	1.21694
983.449	0.985992
986.824	1.25701
990.199	0.6507
993.574	1.0771
996.948	1.80993
1000.32	0.366602
1003.7	0.041584
1007.07	0.117149
1010.45	0.095638
1013.82	1.54205
1017.2	0.170912
1020.57	0.00231
1023.95	1.11739
1027.32	0.562361
1030.7	1.37542
1034.07	0.780748
1037.45	0.345842
1040.82	0.412952
1044.2	2.88094
1047.57	2.5536
1050.94	4.3932
1054.32	5.85515
1057.69	4.50108
1061.07	3.3745
1064.44	2.25823
1067.82	3.24059
1071.19	5.23694
1074.57	5.92393
1077.94	7.72913
1081.32	7.61352
1084.69	7.80854
1088.07	5.76106
1091.44	4.37285
1094.82	4.32846
1098.19	2.91802
1101.57	2.81036
1104.94	0.941654
1108.32	0.877932
1111.69	0.795763
1115.07	0.363171
1118.44	0.637355
1121.82	0.826163
1125.19	0.05218
1128.57	1.22646
1131.94	0.426446
1135.32	1.05795
1138.69	0.382498
1142.07	1.0835
1145.44	0.755085
1148.82	3.22141
1152.19	1.26072
1155.57	1.84274
1158.94	1.48453
1162.31	0.857015
1165.69	0.692755
1169.06	0.11939
1172.44	0.309031
1175.81	1.87346
1179.19	1.68593
1182.56	1.42852
1185.94	1.10364
1189.31	1.24452
1192.69	1.11399
1196.06	0.946072
1199.44	1.56424
1202.81	1.49135
1206.19	3.13917
1209.56	1.06896
1212.94	1.59976
1216.31	1.57634
1219.69	1.96964
1223.06	0.92407
1226.44	0.02475
1229.81	2.03256
1233.19	1.64582
1236.56	0.478971
1239.93	2.51609
1243.31	2.41423
1246.68	2.4613
1250.06	1.05852
1253.43	2.32522
1256.81	0.821157
1260.18	2.56313
1263.56	1.37455
1266.93	0.827227
1270.31	0.015804
1273.68	1.95904
1277.06	1.90369
1280.43	1.46185
1283.81	1.33925
