Measurement: Raman, 780 nm, unoriented, Raman Data Processed
Mineral: Senandorite
Rruff sample: R060673
Ideal chemistry: Ag^1+^Pb^2+^Sb^3+^_3_S^2-^_6_
Locality: San Jose mine, Oruro, Bolivia
Source: Michael Scott S101092, Rock Currier
Description: Dark steel gray metallic prismatic crystals with striation parallel to the c-axis. About ten percent of the volume is andorite IV, as determined by X-ray diffraction.
Raman shift (cm-1)	intensity
124.401	0
127.294	0.858582
130.187	0.7519
133.079	0.112732
135.972	0.858025
138.865	0.125824
141.757	1.49345
144.65	0.553703
147.543	1.68619
150.436	1.90674
153.328	2.13474
156.221	1.60077
159.114	1.36865
162.006	3.09882
164.899	2.44681
167.792	3.0727
170.685	4.05177
173.577	2.68245
176.47	4.03951
179.363	4.10617
182.255	4.33978
185.148	2.18329
188.041	1.83941
190.933	0.577835
193.826	0.151459
196.719	1.67488
199.612	0.890999
202.504	0.077606
205.397	0.704437
208.29	0.09362
211.182	1.75969
214.075	2.26618
216.968	3.99215
219.86	5.79321
222.753	8.21867
225.646	10.2601
228.538	10.9977
231.431	15.7548
234.324	18.4409
237.217	20.6417
240.109	22.9376
243.002	23.6965
245.895	25.0768
248.787	26.3016
251.68	28.4186
254.573	29.0714
257.466	29.3553
260.358	29.1888
263.251	32.0775
266.144	32.0475
269.036	31.2523
271.929	31.8996
274.822	29.8804
277.714	26.5725
280.607	22.6658
283.5	20.2649
286.392	14.6992
289.285	12.5421
292.178	11.5166
295.071	11.7997
297.963	13.1277
300.856	16.3341
303.749	19.4421
306.641	22.1197
309.534	25.3366
312.427	28.5456
315.32	31.7182
318.212	32.7424
321.105	31.6573
323.998	29.3104
326.89	25.5612
329.783	22.1643
332.676	18.7408
335.568	14.6265
338.461	11.2296
341.354	7.33827
344.247	3.23495
347.139	0.500759
350.032	0.290987
352.925	0.430042
355.817	0.769262
358.71	0.890156
361.603	0.419067
364.495	0.393137
367.388	0.342415
370.281	0.233078
373.173	0.193108
376.066	0.313967
378.959	1.09001
381.852	0.695726
384.744	0.880781
387.637	2.20008
390.53	1.80143
393.422	2.06713
396.315	2.43098
399.208	1.8564
402.101	2.69409
404.993	2.52799
407.886	2.65544
410.779	2.50102
413.671	1.98003
416.564	2.17096
419.457	1.91401
422.349	1.94687
425.242	1.92461
428.135	2.24855
431.027	1.40487
433.92	1.0206
436.813	0.812963
439.706	1.90627
442.598	1.57177
445.491	1.07732
448.384	0.414662
451.276	1.06595
454.169	1.00105
457.062	1.24351
459.954	1.67099
462.847	0.645469
465.74	0.66669
468.633	1.26095
471.525	0.939642
474.418	1.12301
477.311	0.32743
480.203	0.797615
483.096	0.849158
485.989	0.102386
488.882	0.670452
491.774	0.573745
494.667	0.542597
497.56	0.069703
500.452	0.042557
503.345	0.024511
506.238	0.786359
509.13	0.00046
512.023	0.208207
514.916	0.394178
517.808	0.53293
520.701	0.058356
523.594	0.725975
526.487	0.440768
529.379	0.723108
532.272	0.289676
535.165	0.311913
538.057	0.762492
540.95	0.615033
543.843	0.557998
546.736	0.392108
549.628	0.707111
552.521	0.651207
555.414	0.481175
558.306	0.02977
561.199	0.375429
564.092	0.020622
566.984	0.692964
569.877	0.900423
572.77	0.141601
575.663	0.050071
578.555	0.762947
581.448	1.03005
584.341	0.636902
587.233	1.03346
590.126	0.47573
593.019	0.339861
595.911	0.5509
598.804	0.311895
601.697	0.766997
604.589	0.324643
607.482	1.04457
610.375	0.250364
613.268	0.234369
616.16	0.111113
619.053	0.579322
621.946	0.758503
624.838	0.29206
627.731	0.077783
630.624	0.18198
633.516	0.903687
636.409	0.869344
639.302	0.599389
642.194	0.27576
645.087	0.406079
647.98	0.576443
650.873	0.403042
653.765	0.804667
656.658	0.074263
659.551	0.653378
662.443	0.336382
665.336	0.421947
668.229	0.137612
671.121	0.018734
674.014	0.399291
676.907	0.743958
679.8	0.586556
682.692	0.982511
685.585	0.208228
688.478	0.743864
691.37	0.57489
694.263	0.157657
697.156	0.106424
700.048	0.729809
702.941	1.14791
705.834	0.045897
708.727	0.830621
711.619	1.19956
714.512	0.245496
717.405	0.055435
720.297	0.608622
723.19	0.116206
726.083	0.753677
728.976	0.408288
731.868	0.769371
734.761	0.203913
737.654	0.77521
740.546	0.32948
743.439	0.778624
746.332	0.473836
749.224	0.438003
752.117	0.410738
755.01	0.058677
757.903	0.621604
760.795	0.275401
763.688	0.647389
766.581	0.906064
769.473	0.046282
772.366	0.182125
775.259	0.370694
778.151	0.853905
781.044	0.05403
783.937	0.27519
786.83	0.701571
789.722	0.156505
792.615	0.500494
795.508	0.718541
798.4	0.035744
801.293	0.901199
804.186	0.345932
807.078	0.278208
809.971	0.276543
812.864	0.066746
815.756	0.439832
818.649	0.375698
821.542	0.880678
824.435	0.624904
827.327	0.689156
830.22	0.971722
833.113	0.479896
836.005	0.747632
838.898	0.979516
841.791	1.15906
844.683	0.734243
847.576	0.522892
850.469	0.110208
853.362	0.387881
856.254	0.464335
859.147	0.282602
862.04	0.393917
864.932	0.097544
867.825	0.259228
870.718	0.470732
873.611	0.567705
876.503	0.163377
879.396	0.73613
882.289	0.279134
885.181	0.319533
888.074	0.495061
890.967	0.11099
893.859	0.222141
896.752	0.300002
899.645	0.626361
902.538	0.258356
905.43	0.142056
908.323	0.298457
911.216	0.290792
914.108	0.333267
917.001	0.543214
919.894	0.055505
922.786	0.194451
925.679	0.874279
928.572	0.012216
931.465	0.695483
934.357	0.388507
937.25	0.614585
940.143	0.645333
943.035	0.753014
945.928	0.03458
948.821	0.641921
951.713	0.645973
954.606	0.079732
957.499	0.812899
960.391	0.065898
963.284	1.09432
966.177	0.15405
969.07	0.683908
971.962	0.803087
974.855	0.483715
977.748	0.318637
980.64	0.367211
983.533	0.489429
986.426	0.738283
989.318	0.608568
992.211	0.190389
995.104	0.349663
997.997	0.535446
1000.89	0.203263
1003.78	0.515906
1006.67	0.565813
1009.57	0.648952
1012.46	0.388697
1015.35	0.804343
1018.25	0.573269
1021.14	0.505415
1024.03	0.564098
1026.92	0.627185
1029.82	0.689985
1032.71	0.508306
1035.6	0.44201
1038.49	1.02476
1041.39	0.196252
1044.28	0.101249
1047.17	0.253622
1050.07	0.066205
1052.96	0.788929
1055.85	1.01686
1058.74	0.866294
1061.64	0.362641
1064.53	0.265551
1067.42	0.387503
1070.31	0.275148
1073.21	0.446402
1076.1	0.305284
1078.99	0.286683
1081.88	0.877421
1084.78	0.942889
1087.67	0.321139
1090.56	0.522748
1093.46	0.248378
1096.35	0.254871
1099.24	0.10015
1102.13	0.190663
1105.03	0.80225
1107.92	0.51558
1110.81	0.212129
1113.7	1.14337
1116.6	0.564857
1119.49	0.539796
1122.38	0.431456
1125.28	0.272628
1128.17	0.414537
1131.06	1.00347
1133.95	0.893852
1136.85	0.694823
1139.74	0.639619
1142.63	0.778609
1145.52	0.921039
1148.42	0.449797
1151.31	0.935405
1154.2	0.388402
1157.1	0.623137
1159.99	0.697551
1162.88	0.437831
1165.77	0.117379
1168.67	1.10258
1171.56	0.28098
1174.45	0.638189
1177.34	0.635866
1180.24	0.379567
1183.13	0.61398
1186.02	0.511914
1188.91	0.502328
1191.81	0.543607
1194.7	0.547134
1197.59	0.923228
1200.49	0.474784
1203.38	0.175952
1206.27	0.486715
1209.16	0.286412
1212.06	0.756359
1214.95	0.642155
1217.84	0.109635
1220.73	0.612169
1223.63	0.56346
1226.52	0.807322
1229.41	0.34771
1232.31	0.56264
1235.2	0.456171
1238.09	0.672042
1240.98	0.73957
1243.88	0.502323
1246.77	0.845849
1249.66	0.954612
1252.55	0.696546
1255.45	0.006874
1258.34	0.646762
1261.23	0.31536
1264.12	0.729109
1267.02	1.13227
1269.91	0.212424
