Measurement: Raman, 780 nm, unoriented, Raman Data Processed
Mineral: Senaite
Rruff sample: R060644
Ideal chemistry: Pb^2+^(Mn^2+^,Y^3+^,U^6+^)(Fe^2+^,Zn^2+^)_2_(Ti^4+^,Fe^3+^,Cr^3+^,V^5+^)_18_(O,OH)_38_
Locality: Fazenda Guariba, Minas Gerais, Brazil
Source: Michael Scott
Description: Black submetallic rounded grains on quartz with associated rutile
Raman shift (cm-1)	intensity
219.321	0
222.214	1.9819
225.106	1.68176
227.999	2.90021
230.892	7.49072
233.784	12.9422
236.677	18.062
239.57	25.6653
242.462	32.8313
245.355	33.426
248.248	33.074
251.14	26.9871
254.033	24.0453
256.926	16.8199
259.818	15.8353
262.711	13.3793
265.604	13.5056
268.497	15.7297
271.389	15.5737
274.282	19.4374
277.175	19.1307
280.067	20.2059
282.96	19.9347
285.853	19.3497
288.745	16.7475
291.638	12.859
294.531	9.1071
297.424	4.9332
300.316	3.93715
303.209	2.26445
306.102	0.082336
308.994	0.798004
311.887	0.221466
314.78	1.29974
317.673	1.25575
320.565	0.74472
323.458	1.60367
326.351	0.860764
329.243	0.93129
332.136	2.11789
335.029	4.28435
337.921	3.45198
340.814	6.4368
343.707	8.25604
346.599	6.78487
349.492	2.26685
352.385	2.71452
355.278	1.51401
358.17	2.02939
361.063	2.04691
363.956	2.53488
366.848	2.5965
369.741	5.52911
372.634	4.5432
375.526	3.32005
378.419	4.46921
381.312	3.6589
384.205	1.89371
387.097	1.36842
389.99	1.37341
392.883	2.91473
395.775	1.46843
398.668	1.29196
401.561	5.52266
404.453	5.29747
407.346	7.25046
410.239	5.7298
413.132	6.42064
416.024	6.25937
418.917	6.96475
421.81	4.037
424.702	2.99416
427.595	3.60661
430.488	2.65874
433.38	3.40533
436.273	1.40048
439.166	1.19047
442.058	1.59251
444.951	0.378799
447.844	2.24051
450.737	1.81355
453.629	0.541122
456.522	0.270676
459.415	2.80638
462.307	3.31117
465.2	2.15245
468.093	4.28265
470.986	3.92355
473.878	5.32138
476.771	4.07727
479.664	3.41286
482.556	5.02862
485.449	1.97115
488.342	2.70888
491.234	4.20721
494.127	3.04404
497.02	2.71262
499.913	2.22264
502.805	2.909
505.698	0.795883
508.591	0.896858
511.483	1.84108
514.376	0.251099
517.269	0.684479
520.161	0.434807
523.054	0.519714
525.947	0.02652
528.84	2.71872
531.732	0.609467
534.625	2.10224
537.518	4.77692
540.41	4.15294
543.303	6.44814
546.196	7.32136
549.088	9.11006
551.981	10.7497
554.874	10.5438
557.766	9.94748
560.659	7.95065
563.552	5.52989
566.444	5.35418
569.337	4.75956
572.23	5.61472
575.123	7.03522
578.015	6.82685
580.908	6.36356
583.801	5.85393
586.693	8.88812
589.586	5.99974
592.479	5.55866
595.371	7.15447
598.264	5.82407
601.157	5.91347
604.05	5.71818
606.942	5.48929
609.835	6.21034
612.728	4.8751
615.62	4.48371
618.513	4.27799
621.406	2.27094
624.298	2.23192
627.191	0.796051
630.084	1.32661
632.977	1.75146
635.869	0.33609
638.762	1.38395
641.655	1.45355
644.547	0.98764
647.44	2.42547
650.333	0.365448
653.226	0.776924
656.118	1.67339
659.011	3.00891
661.904	0.827911
664.796	1.02619
667.689	2.26948
670.582	1.76755
673.474	2.59177
676.367	2.55514
679.26	2.05527
682.153	3.26844
685.045	3.70314
687.938	1.90476
690.831	3.18929
693.723	2.17649
696.616	0.61158
699.509	1.19162
702.401	1.01328
705.294	0.633423
708.187	1.45407
711.079	3.37217
713.972	2.36697
716.865	2.39484
719.758	0.27298
722.65	2.28978
725.543	1.36436
728.436	1.85151
731.328	0.927025
734.221	0.149879
737.114	0.385292
740.006	0.396118
742.899	0.684326
745.792	1.09553
748.684	0.125221
751.577	0.211266
754.47	1.1352
757.363	2.16946
760.255	0.252609
763.148	1.34541
766.041	0.808601
768.933	2.65213
771.826	1.00668
774.719	3.37602
777.611	4.02882
780.504	2.67612
783.397	4.36797
786.29	4.69773
789.182	5.77774
792.075	5.24134
794.968	5.64236
797.86	5.77853
800.753	7.18765
803.646	5.17367
806.538	6.83385
809.431	6.99908
812.324	5.43506
815.217	6.7306
818.109	6.25222
821.002	7.68581
823.895	7.25187
826.787	8.49185
829.68	8.25814
832.573	7.07263
835.466	9.25155
838.358	9.34714
841.251	9.30875
844.144	11.0827
847.036	9.96496
849.929	10.9335
852.822	10.6718
855.714	11.64
858.607	9.3076
861.5	11.2884
864.393	9.99193
867.285	10.3087
870.178	8.80174
873.071	9.99212
875.963	7.27548
878.856	6.19522
881.749	6.06678
884.641	6.18124
887.534	6.09869
890.427	3.23335
893.319	4.44735
896.212	4.8176
899.105	2.79874
901.997	1.53621
904.89	3.36403
907.783	0.152214
910.676	2.66072
913.568	1.36225
916.461	0.252106
919.354	0.495651
922.246	0.558441
925.139	0.635742
928.032	0.184486
930.924	1.34238
933.817	0.376038
936.71	0.298912
939.603	0.98999
942.495	1.34738
945.388	0.174606
948.281	0.223801
951.173	0.82859
954.066	1.41382
956.959	0.701698
959.851	2.75763
962.744	2.14862
965.637	2.48677
968.529	0.159744
971.422	1.31803
974.315	1.0144
977.208	1.24221
980.1	0.272186
982.993	1.18391
985.886	1.61046
988.778	2.57418
991.671	0.186432
994.564	3.7331
997.457	3.08691
1000.35	2.43468
1003.24	3.65689
1006.13	1.76465
1009.03	2.05244
1011.92	1.71908
1014.81	1.00824
1017.71	3.49418
1020.6	1.62009
1023.49	4.2985
1026.38	3.60971
1029.28	3.56198
1032.17	3.63587
1035.06	3.6769
1037.95	2.50901
1040.85	2.63332
1043.74	3.70195
1046.63	5.02916
1049.53	5.10771
1052.42	4.51031
1055.31	2.94489
1058.2	3.50591
1061.1	3.61665
1063.99	3.40204
1066.88	2.11174
1069.77	3.07466
1072.67	2.33439
1075.56	3.02636
1078.45	2.08171
1081.35	2.4648
1084.24	1.53634
1087.13	2.88467
1090.02	3.22003
1092.92	1.41875
1095.81	1.06603
1098.7	0.895897
1101.59	0.687874
1104.49	0.837227
1107.38	1.06939
1110.27	1.35902
1113.16	2.0079
1116.06	1.84773
1118.95	0.171921
1121.84	0.569435
1124.73	1.45612
1127.63	0.730011
1130.52	0.571754
1133.41	0.533981
1136.31	1.95114
1139.2	1.20003
1142.09	0.419708
1144.98	1.72118
1147.88	2.1215
1150.77	0.991447
1153.66	2.02698
1156.56	1.08559
1159.45	0.676674
1162.34	1.47912
1165.23	0.183533
1168.13	1.0473
1171.02	1.95012
1173.91	2.89156
1176.8	1.36994
1179.7	2.41303
1182.59	1.25857
1185.48	1.03602
1188.38	3.46435
1191.27	1.23602
1194.16	0.731796
1197.05	2.18331
1199.94	5.79441
1202.84	3.41782
1205.73	2.00613
1208.62	2.01562
1211.52	1.55408
1214.41	3.33907
1217.3	1.75516
1220.19	1.28793
1223.09	0.85067
1225.98	3.0346
1228.87	2.49017
1231.77	1.40015
1234.66	2.15411
1237.55	1.24688
1240.44	1.54848
1243.34	1.27866
1246.23	1.62403
1249.12	2.99445
1252.01	1.95547
1254.91	0.324928
1257.8	0.595009
1260.69	2.1666
1263.59	2.05702
1266.48	2.39972
1269.37	2.27071
1272.26	1.38908
1275.16	0.960709
1278.05	1.82297
1280.94	0.589706
1283.83	0.014587
