Measurement: Raman, 532 nm, unoriented, Raman Data Processed
Mineral: Senandorite
Rruff sample: R060673
Ideal chemistry: Ag^1+^Pb^2+^Sb^3+^_3_S^2-^_6_
Locality: San Jose mine, Oruro, Bolivia
Source: Michael Scott S101092, Rock Currier
Description: Dark steel gray metallic prismatic crystals with striation parallel to the c-axis. About ten percent of the volume is andorite IV, as determined by X-ray diffraction.
Raman shift (cm-1)	intensity
120.405	0
123.78	0.106718
127.154	0.921228
130.529	3.4815
133.904	1.92303
137.279	1.87041
140.654	2.68488
144.029	2.30109
147.403	2.47878
150.778	1.61899
154.153	2.86278
157.528	1.50439
160.903	1.43044
164.277	1.13157
167.652	0.988871
171.027	1.35118
174.402	1.90514
177.777	2.00978
181.151	1.04921
184.526	0.989014
187.901	0.103481
191.276	0.061901
194.651	0.301666
198.025	0.496408
201.4	1.02824
204.775	0.441254
208.15	0.295336
211.525	0.260958
214.9	1.04945
218.274	2.68332
221.649	3.40196
225.024	5.1245
228.399	7.03302
231.774	7.39973
235.149	8.82643
238.523	10.1306
241.898	10.8808
245.273	10.3356
248.648	10.438
252.023	10.3049
255.397	10.0614
258.772	9.84772
262.147	11.2373
265.522	9.25651
268.897	11.2516
272.272	11.8572
275.646	11.2094
279.021	11.3693
282.396	9.83749
285.771	9.56663
289.146	9.25228
292.52	8.808
295.895	7.70716
299.27	7.57488
302.645	7.32998
306.02	9.39221
309.394	9.77365
312.769	11.2668
316.144	12.5436
319.519	13.7313
322.894	14.3633
326.269	12.287
329.643	9.87757
333.018	9.54338
336.393	8.78429
339.768	7.88333
343.143	3.5724
346.517	1.42339
349.892	0.992221
353.267	0.43516
356.642	0.825277
360.017	0.742774
363.392	0.303053
366.766	0.170909
370.141	0.187727
373.516	0.00097
376.891	0.24548
380.266	0.211051
383.64	0.344471
387.015	0.888004
390.39	0.841937
393.765	0.544291
397.14	0.600892
400.514	0.909823
403.889	0.870215
407.264	1.80722
410.639	0.387818
414.014	0.687173
417.389	1.01525
420.763	0.931676
424.138	1.09302
427.513	0.46157
430.888	0.674668
434.263	0.380148
437.637	0.956957
441.012	1.08195
444.387	0.77783
447.762	0.268818
451.137	0.93908
454.512	0.042206
457.886	0.93424
461.261	0.662851
464.636	0.671457
468.011	0.48883
471.386	0.739808
474.76	0.307195
478.135	0.338182
481.51	0.548056
484.885	0.031451
488.26	0.441967
491.635	0.037201
495.009	0.099988
498.384	0.709326
501.759	0.526196
505.134	0.681487
508.509	0.236819
511.883	0.61343
515.258	0.487915
518.633	0.133304
522.008	0.609511
525.383	0.208292
528.758	0.298277
532.132	0.522546
535.507	0.405757
538.882	0.896553
542.257	0.830173
545.632	0.372046
549.006	0.02058
552.381	0.350132
555.756	0.8829
559.131	0.388592
562.506	0.338467
565.88	0.419126
569.255	0.551911
572.63	0.35105
576.005	0.081398
579.38	0.701384
582.755	0.70105
586.129	0.073244
589.504	0.634519
592.879	0.567444
596.254	0.529374
599.629	0.055591
603.003	0.63547
606.378	0.401295
609.753	0.589055
613.128	0.1694
616.503	0.141367
619.878	0.740329
623.252	0.944572
626.627	0.353126
630.002	0.256225
633.377	0.843974
636.752	0.540287
640.126	0.886827
643.501	0.748559
646.876	0.922123
650.251	0.602449
653.626	0.372897
657	0.744659
660.375	0.454398
663.75	0.494232
667.125	0.604527
670.5	0.307837
673.875	0.20348
677.249	0.490988
680.624	0.205114
683.999	0.646488
687.374	0.18194
690.749	0.675549
694.124	0.856328
697.498	0.545627
700.873	0.149743
704.248	0.816416
707.623	0.191907
710.998	0.276131
714.372	0.270071
717.747	0.493966
721.122	0.573574
724.497	0.208355
727.872	0.749319
731.246	0.1029
734.621	0.562197
737.996	0.774998
741.371	0.471202
744.746	0.355519
748.12	0.469935
751.495	0.278698
754.87	0.769766
758.245	0.180308
761.62	0.812552
764.995	0.03726
768.369	0.718472
771.744	0.114619
775.119	0.066552
778.494	0.138
781.869	0.592529
785.244	0.268792
788.618	0.279584
791.993	0.374094
795.368	0.405593
798.743	1.05126
802.118	0.512752
805.492	0.716449
808.867	0.442298
812.242	0.252306
815.617	0.067695
818.992	0.682869
822.366	0.166255
825.741	0.736995
829.116	0.34625
832.491	0.529386
835.866	0.359359
839.24	0.416396
842.615	0.067812
845.99	0.940578
849.365	0.900736
852.74	0.769754
856.115	0.852574
859.489	0.480486
862.864	0.836948
866.239	0.288602
869.614	0.160278
872.989	0.166938
876.364	0.528772
879.738	0.519251
883.113	0.545932
886.488	0.248982
889.863	0.147692
893.238	0.383183
896.612	0.387816
899.987	0.279023
903.362	0.71419
906.737	0.502383
910.112	0.203942
913.486	0.227548
916.861	0.170615
920.236	0.730258
923.611	0.544954
926.986	0.658146
930.361	0.054641
933.735	0.286152
937.11	0.80525
940.485	0.219463
943.86	0.369326
947.235	0.535938
950.61	0.441623
953.984	0.394998
957.359	0.461541
960.734	0.411107
964.109	1.16398
967.484	0.188394
970.858	1.19425
974.233	0.73626
977.608	0.797915
980.983	0.448188
984.358	0.464939
987.732	0.302672
991.107	0.355569
994.482	0.640773
997.857	0.121553
1001.23	0.69225
1004.61	0.59053
1007.98	0.314453
1011.36	0.445017
1014.73	0.116071
1018.11	0.558579
1021.48	0.410177
1024.86	0.655557
1028.23	1.05944
1031.61	0.577344
1034.98	0.491457
1038.36	0.587941
1041.73	0.925407
1045.1	0.138294
1048.48	0.566874
1051.85	0.775796
1055.23	0.830441
1058.6	0.814591
1061.98	0.736191
1065.35	0.443693
1068.73	0.430807
1072.1	0.365907
1075.48	0.202876
1078.85	0.097143
1082.23	0.8705
1085.6	0.103826
1088.98	0.576412
1092.35	0.424451
1095.73	0.70273
1099.1	0.375382
1102.48	0.466025
1105.85	0.684064
1109.23	0.350086
1112.6	0.141743
1115.97	0.66209
1119.35	0.427479
1122.72	0.33606
1126.1	0.75174
1129.47	0.476956
1132.85	0.141349
1136.22	0.311348
1139.6	0.311999
1142.97	0.238466
1146.35	0.756694
1149.72	0.124258
1153.1	0.493086
1156.47	0.00552
1159.85	0.108971
1163.22	0.258403
1166.6	0.479605
1169.97	0.192832
1173.35	0.401447
1176.72	0.50326
1180.1	0.133364
1183.47	0.323532
1186.85	0.683894
1190.22	0.125747
1193.6	0.15687
1196.97	0.520474
1200.35	0.315781
1203.72	0.78539
1207.1	0.086567
1210.47	0.570344
1213.85	0.099522
1217.22	0.021039
1220.6	0.175553
1223.97	0.331157
1227.34	0.060402
1230.72	0.732693
1234.09	0.638575
1237.47	0.462283
1240.84	0.921539
1244.22	0.316428
1247.59	0.449108
1250.97	0.164172
1254.34	0.698809
1257.72	0.48231
1261.09	0.403071
1264.47	1.01107
1267.84	0.487438
1271.22	0.032049
1274.59	0.681974
1277.97	0.369386
1281.34	0.170807
1284.72	0.447146
1288.09	0.547901
1291.47	0.446381
1294.84	0.187239
