Measurement: Raman, 532 nm, unoriented, Raman Data Processed
Mineral: Senandorite
Rruff sample: R070718
Ideal chemistry: Ag^1+^Pb^2+^Sb^3+^_3_S^2-^_6_
Locality: Bear Basin Mines, Lennox Creek, Bear Basin, North Bend, King County, Washington, USA
Source: Michael Scott
Description: Black, massive in polished section, associated with andorite IV and white kutnohorite. Andorite VI:andorite IV = 80:20
Raman shift (cm-1)	intensity
128.805	0
132.18	73.5729
135.555	37.4021
138.93	49.9836
142.305	35.4469
145.679	82.1808
149.054	64.2478
152.429	77.0648
155.804	110.574
159.179	90.9604
162.554	24.0013
165.928	29.7518
169.303	20.6779
172.678	29.3987
176.053	2.68652
179.428	63.6184
182.803	13.2555
186.177	45.3721
189.552	26.1899
192.927	38.478
196.302	49.05
199.677	24.5159
203.051	35.3208
206.426	94.5502
209.801	97.0963
213.176	101.724
216.551	131.602
219.925	152.327
223.3	150.901
226.675	227.513
230.05	212.19
233.425	207.592
236.799	238.115
240.174	214.441
243.549	220.216
246.924	259.509
250.299	240.788
253.674	296.55
257.048	285.945
260.423	270.644
263.798	308
267.173	268.877
270.548	314.872
273.923	254.647
277.297	259.796
280.672	215.713
284.047	217.452
287.422	191.203
290.796	172.12
294.171	133.658
297.546	121.136
300.921	65.893
304.296	77.9406
307.671	94.0058
311.045	122.813
314.42	127.405
317.795	147.503
321.17	176.517
324.545	170.536
327.92	108.479
331.294	151.182
334.669	165.435
338.044	142.664
341.419	143.181
344.794	95.9785
348.168	77.3083
351.543	20.7602
354.918	13.0484
358.293	3.78217
361.668	26.6181
365.043	10.0676
368.417	1.08048
371.792	0.065125
375.167	5.10797
378.542	2.48514
381.917	8.96771
385.291	4.29746
388.666	40.7211
392.041	33.938
395.416	39.5147
398.791	40.4144
402.166	41.8567
405.54	42.6278
408.915	37.9606
412.29	58.6959
415.665	52.9905
419.04	77.4958
422.414	60.4622
425.789	51.5975
429.164	74.4487
432.539	51.2081
435.914	24.7076
439.288	14.4273
442.663	8.71896
446.038	39.8941
449.413	30.8431
452.788	22.5364
456.163	17.7698
459.537	40.1914
462.912	22.7203
466.287	1.66403
469.662	37.7212
473.037	30.3513
476.411	22.579
479.786	27.8723
483.161	23.2357
486.536	10.5544
489.911	51.9161
493.286	32.8896
496.66	26.5926
500.035	11.4738
503.41	0.744415
506.785	37.3902
510.16	20.4093
513.534	30.3002
516.909	20.9517
520.284	15.5309
523.659	6.38477
527.034	24.1851
530.408	8.76471
533.783	24.5894
537.158	49.6082
540.533	44.0086
543.908	31.9669
547.283	16.8909
550.657	19.7167
554.032	32.4092
557.407	40.267
560.782	2.98524
564.157	31.8003
567.531	11.1651
570.906	26.6238
574.281	37.749
577.656	20.8983
581.031	53.0428
584.405	34.8341
587.78	32.4179
591.155	25.0476
594.53	0.908829
597.905	6.9856
601.28	20.8398
604.654	27.9351
608.029	29.2026
611.404	30.9429
614.779	21.9735
618.154	16.1534
621.529	47.8861
624.903	26.0139
628.278	70.2762
631.653	33.966
635.028	36.852
638.403	13.895
641.777	0.810532
645.152	21.0087
648.527	12.1386
651.902	38.9025
655.277	8.18817
658.651	38.8301
662.026	25.9356
665.401	2.23315
668.776	8.23056
672.151	25.1688
675.525	50.6153
678.9	23.3302
682.275	13.3354
685.65	4.49451
689.025	38.8657
692.4	12.4787
695.774	24.5813
699.149	14.4268
702.524	20.5475
705.899	35.2593
709.274	38.6329
712.649	28.7999
716.023	34.8252
719.398	22.825
722.773	3.66293
726.148	27.9804
729.523	29.3583
732.897	21.184
736.272	25.6694
739.647	6.91824
743.022	44.1518
746.397	14.9034
749.771	24.0512
753.146	23.2636
756.521	20.5738
759.896	56.977
763.271	19.9699
766.646	8.87505
770.02	37.3236
773.395	18.9392
776.77	33.6634
780.145	25.9645
783.52	20.4084
786.894	21.541
790.269	46.7464
793.644	13.7841
797.019	29.5343
800.394	28.4581
803.769	33.6169
807.143	2.5081
810.518	6.76343
813.893	26.9098
817.268	0.764313
820.643	23.9352
824.017	6.18863
827.392	24.2234
830.767	11.3187
834.142	16.9956
837.517	1.72147
840.891	13.4308
844.266	12.8254
847.641	0.893112
851.016	6.08215
854.391	48.9756
857.766	19.6601
861.14	38.5336
864.515	0.456909
867.89	20.4623
871.265	40.7535
874.64	28.765
878.014	27.5262
881.389	46.6504
884.764	24.5056
888.139	28.0282
891.514	36.4659
894.889	5.74577
898.263	18.7188
901.638	22.7337
905.013	13.208
908.388	7.74135
911.763	48.0368
915.138	31.8099
918.512	9.97955
921.887	18.0744
925.262	3.43045
928.637	10.989
932.011	49.2157
935.386	31.0237
938.761	31.9465
942.136	27.3923
945.511	13.299
948.886	30.0701
952.26	18.6031
955.635	20.043
959.01	3.11093
962.385	0.779968
965.76	17.5048
969.135	12.6619
972.509	29.1472
975.884	4.66266
979.259	18.8673
982.634	22.1381
986.009	12.3109
989.383	16.5913
992.758	14.537
996.133	17.6267
999.508	21.2711
1002.88	19.3093
1006.26	21.5163
1009.63	43.0129
1013.01	38.4719
1016.38	30.1144
1019.76	29.5804
1023.13	26.3996
1026.51	40.6214
1029.88	35.4235
1033.26	33.1433
1036.63	32.6214
1040.01	12.7981
1043.38	26.5779
1046.76	35.9403
1050.13	17.9
1053.51	27.1801
1056.88	18.3011
1060.26	11.1593
1063.63	29.1618
1067	19.9585
1070.38	19.9978
1073.75	40.7991
1077.13	36.4421
1080.5	20.1397
1083.88	11.9078
1087.25	27.1077
1090.63	30.6391
1094	9.46086
1097.38	7.88033
1100.75	44.0635
1104.13	29.4791
1107.5	9.58299
1110.88	38.2636
1114.25	13.7328
1117.63	36.0025
1121	22.9932
1124.38	21.4353
1127.75	46.4287
1131.13	33.2981
1134.5	4.85396
1137.88	35.2629
1141.25	32.0748
1144.62	23.9416
1148	10.4453
1151.38	14.2323
1154.75	17.3966
1158.12	4.06286
1161.5	24.0282
1164.87	7.49509
1168.25	21.7227
1171.62	19.4478
1175	25.7223
1178.37	2.00519
1181.75	11.2807
1185.12	16.408
1188.5	0.075012
1191.87	22.8379
1195.25	53.6151
1198.62	19.2592
1202	33.898
1205.37	40.4331
1208.75	44.6761
1212.12	25.3529
1215.5	40.7508
1218.87	15.9583
1222.25	36.0416
1225.62	12.1048
1228.99	34.9084
1232.37	48.2602
1235.74	31.9812
1239.12	22.1124
1242.49	3.84146
1245.87	28.1263
1249.24	31.8069
1252.62	15.4331
1255.99	27.438
1259.37	13.3959
1262.74	21.5051
1266.12	16.9535
1269.49	15.6632
1272.87	8.61083
1276.24	18.9177
1279.62	16.4348
1282.99	19.8563
1286.37	2.98701
1289.74	26.965
1293.12	3.67668
1296.49	26.4701
