Measurement: Raman, 780 nm, unoriented, Raman Data Processed
Mineral: Senandorite
Rruff sample: R070718
Ideal chemistry: Ag^1+^Pb^2+^Sb^3+^_3_S^2-^_6_
Locality: Bear Basin Mines, Lennox Creek, Bear Basin, North Bend, King County, Washington, USA
Source: Michael Scott
Description: Black, massive in polished section, associated with andorite IV and white kutnohorite. Andorite VI:andorite IV = 80:20
Raman shift (cm-1)	intensity
119.041	0
122.416	106.569
125.791	55.8818
129.166	64.7681
132.541	76.7583
135.915	141.766
139.29	190.177
142.665	265.689
146.04	389.545
149.415	448.631
152.79	455.294
156.164	418.575
159.539	268.94
162.914	138.798
166.289	81.4341
169.664	16.0034
173.038	47.853
176.413	111.414
179.788	34.5029
183.163	75.2681
186.538	32.873
189.912	78.3071
193.287	17.1719
196.662	86.9585
200.037	195.804
203.412	216.614
206.786	439.359
210.161	737.602
213.536	1015.93
216.911	1259.16
220.286	1507.26
223.661	1952.66
227.035	2069.81
230.41	2476.45
233.785	2742.36
237.16	2861.25
240.535	2935.74
243.91	2979.35
247.284	3033.08
250.659	3042.66
254.034	3003.48
257.409	3150.62
260.784	3279.01
264.158	3342.39
267.533	3391.69
270.908	3493.67
274.283	3387.09
277.658	3168.56
281.033	2955.55
284.407	2656.04
287.782	2214.55
291.157	1777.17
294.532	1375.42
297.907	967.266
301.281	791.153
304.656	752.606
308.031	949.319
311.406	1252.43
314.781	1613.02
318.156	2067.12
321.53	2302.93
324.905	2544.73
328.28	2457.11
331.655	2525.67
335.03	2750.51
338.404	3004.11
341.779	3023.68
345.154	2641.05
348.529	1771.23
351.904	950.705
355.279	376.629
358.653	91.2219
362.028	48.46
365.403	96.1239
368.778	103.381
372.153	60.9088
375.527	72.0414
378.902	16.7065
382.277	36.5693
385.652	58.1555
389.027	125.243
392.401	166.437
395.776	178.84
399.151	220.172
402.526	241.344
405.901	308.753
409.276	299.919
412.65	344.452
416.025	383.501
419.4	415.937
422.775	394.094
426.15	368.791
429.524	343.399
432.899	297.518
436.274	225.147
439.649	216.686
443.024	185.8
446.399	190.176
449.773	163.296
453.148	170.918
456.523	166.939
459.898	124.366
463.273	152.236
466.647	137.041
470.022	128.903
473.397	126.22
476.772	112.282
480.147	111.645
483.522	101.063
486.896	59.7761
490.271	55.4292
493.646	65.2968
497.021	64.5975
500.396	50.5165
503.77	50.2926
507.145	26.4262
510.52	42.1044
513.895	51.4882
517.27	14.4178
520.644	19.2524
524.019	2.20239
527.394	32.6722
530.769	16.1642
534.144	0.338013
537.519	27.728
540.893	12.8286
544.268	16.1373
547.643	3.03705
551.018	1.32892
554.393	0.370789
557.768	3.44763
561.142	15.6248
564.517	13.4987
567.892	9.89032
571.267	2.0639
574.641	11.4873
578.016	7.76562
581.391	20.2942
584.766	11.9676
588.141	13.7618
591.516	31.6487
594.89	11.6626
598.265	15.2417
601.64	15.9492
605.015	2.68634
608.39	7.37787
611.764	4.15839
615.139	21.0861
618.514	18.3599
621.889	16.8563
625.264	63.2391
628.639	30.0797
632.013	52.1791
635.388	42.5881
638.763	37.6349
642.138	18.0055
645.513	5.00232
648.888	22.0964
652.262	18.9577
655.637	20.4849
659.012	7.01337
662.387	56.6549
665.762	25.1265
669.136	22.208
672.511	27.556
675.886	12.4867
679.261	47.9835
682.636	22.9499
686.01	17.6116
689.385	3.83688
692.76	23.9285
696.135	16.6655
699.51	22.3684
702.885	28.0724
706.259	35.6394
709.634	15.8273
713.009	13.9356
716.384	42.1815
719.759	54.5905
723.134	40.5713
726.508	34.6737
729.883	31.2901
733.258	18.948
736.633	19.9382
740.008	14.7042
743.382	22.2852
746.757	31.1903
750.132	17.9221
753.507	17.7063
756.882	0.989166
760.256	47.7172
763.631	17.8771
767.006	17.9312
770.381	38.4216
773.756	37.4493
777.131	33.4362
780.505	35.8621
783.88	20.3914
787.255	36.8929
790.63	36.4931
794.005	3.61969
797.38	31.6756
800.754	31.2682
804.129	9.11105
807.504	9.63367
810.879	7.94766
814.254	6.98648
817.628	20.0006
821.003	38.8493
824.378	4.43033
827.753	25.0208
831.128	24.5207
834.502	17.3161
837.877	1.63171
841.252	11.8177
844.627	10.0791
848.002	32.0234
851.376	34.7057
854.751	19.877
858.126	13.5602
861.501	31.2885
864.876	0.679565
868.25	13.4656
871.625	23.807
875	24.0753
878.375	8.75702
881.75	22.7223
885.125	28.4334
888.5	1.16003
891.874	34.5701
895.249	35.4325
898.624	27.1291
901.999	24.0987
905.374	27.6582
908.748	33.659
912.123	25.5658
915.498	32.1506
918.873	20.0093
922.248	9.18387
925.622	3.41745
928.997	20.9179
932.372	48.0693
935.747	5.85483
939.122	33.4283
942.496	44.283
945.871	8.95132
949.246	13.6682
952.621	16.4194
955.996	23.3269
959.371	23.5725
962.745	35.1587
966.12	2.10791
969.495	39.5285
972.87	2.24545
976.245	42.4395
979.62	36.4622
982.994	36.6056
986.369	53.98
989.744	38.9816
993.119	37.059
996.494	17.5255
999.868	23.9578
1003.24	36.1415
1006.62	10.8763
1009.99	22.9587
1013.37	16.2937
1016.74	13.2492
1020.12	35.8768
1023.49	16.1445
1026.87	1.58728
1030.24	34.8433
1033.62	14.9381
1036.99	23.7933
1040.37	36.2953
1043.74	14.445
1047.12	27.9055
1050.49	4.01935
1053.87	7.43124
1057.24	23.8532
1060.62	49.9874
1063.99	6.84326
1067.37	33.5307
1070.74	43.5398
1074.11	10.4882
1077.49	11.4252
1080.86	12.0346
1084.24	10.6525
1087.61	0.50531
1090.99	12.6994
1094.36	26.0486
1097.74	17.0894
1101.11	5.38092
1104.49	18.416
1107.86	11.6804
1111.24	12.6479
1114.61	34.3767
1117.99	20.0954
1121.36	25.6987
1124.74	33.8559
1128.11	11.1332
1131.49	2.67111
1134.86	1.21454
1138.24	12.434
1141.61	23.0836
1144.98	9.50098
1148.36	8.57526
1151.73	25.8364
1155.11	11.6184
1158.48	6.32022
1161.86	33.6688
1165.23	8.11466
1168.61	4.27625
1171.98	7.38913
1175.36	11.5839
1178.73	9.89719
1182.11	7.70862
1185.48	26.5217
1188.86	17.194
1192.23	29.1554
1195.61	11.8765
1198.98	21.6337
1202.36	3.60245
1205.73	14.7329
1209.11	26.3955
1212.48	25.9066
1215.86	15.8133
1219.23	9.36008
1222.61	5.34692
1225.98	25.1645
1229.36	17.5566
1232.73	20.8786
1236.11	2.57867
1239.48	28.1996
1242.86	16.2344
1246.23	21.2206
1249.61	16.9574
1252.98	17.8561
1256.35	19.1484
1259.73	25.6429
1263.1	7.32114
1266.48	22.987
1269.85	4.95489
1273.23	16.6171
1276.6	7.62825
1279.98	8.13644
1283.35	12.9684
