Measurement: Raman, 532 nm, unoriented, Raman Data Processed
Mineral: Senandorite
Rruff sample: R100212
Ideal chemistry: Ag^1+^Pb^2+^Sb^3+^_3_S^2-^_6_
Locality: Felsobanya, Romania
Source: Mark N. Feinglos
Description: Elogated crystals with striations, associated with wurtzite
Measured chemistry: Ag_0.94_Pb_0.87_Cu_0.11_Fe_0.06_Mn_0.05_Bi_0.01_Sb_3.14_S_6_
Raman shift (cm-1)	intensity
189.387	0
192.28	5.55685
195.173	5.5011
198.065	6.49054
200.958	7.78163
203.851	3.70428
206.743	14.5991
209.636	2.16009
212.529	16.5596
215.421	13.4662
218.314	9.52572
221.207	19.1079
224.1	12.2505
226.992	13.6909
229.885	8.93994
232.778	11.4104
235.67	11.4259
238.563	14.9557
241.456	8.57818
244.348	5.90642
247.241	14.8909
250.134	10.8715
253.026	14.2854
255.919	15.1278
258.812	17.2843
261.705	21.4943
264.597	10.1717
267.49	11.9018
270.383	4.33122
273.276	11.5922
276.168	9.66478
279.061	10.4027
281.954	9.10894
284.846	8.80831
287.739	4.6708
290.632	1.43123
293.524	7.39909
296.417	1.6771
299.31	0.155517
302.202	9.47541
305.095	12.5523
307.988	4.82792
310.881	5.70552
313.773	6.29692
316.666	11.4659
319.559	10.5461
322.451	13.4356
325.344	5.93428
328.237	7.43976
331.13	14.836
334.022	3.77381
336.915	2.82214
339.808	1.99087
342.7	12.7939
345.593	9.47101
348.486	8.66138
351.378	6.48087
354.271	6.94782
357.164	4.78768
360.057	1.43824
362.949	8.13248
365.842	7.28849
368.735	1.43338
371.627	2.67095
374.52	3.10986
377.413	0.077876
380.305	2.29352
383.198	0.795999
386.091	9.87622
388.984	5.09816
391.876	3.5808
394.769	10.6721
397.662	6.69463
400.554	11.8415
403.447	6.10815
406.34	10.5805
409.233	8.56748
412.125	1.17099
415.018	2.93169
417.911	2.65948
420.803	8.87606
423.696	5.58967
426.589	4.43778
429.481	4.79954
432.374	4.8187
435.267	7.69033
438.159	14.121
441.052	4.88118
443.945	10.7478
446.838	4.13123
449.73	6.53093
452.623	3.99489
455.516	7.83036
458.409	4.7841
461.301	16.469
464.194	4.86107
467.087	2.1175
469.979	6.7871
472.872	6.61661
475.765	1.26264
478.657	10.405
481.55	10.2946
484.443	16.7262
487.336	8.41312
490.228	2.87454
493.121	1.28411
496.014	1.06656
498.906	10.0153
501.799	8.55114
504.692	9.33843
507.584	7.54307
510.477	12.46
513.37	7.96059
516.263	2.07018
519.155	3.74411
522.048	4.16162
524.941	6.65479
527.833	1.27381
530.726	5.02091
533.619	9.10499
536.511	7.1018
539.404	3.94903
542.297	4.92916
545.19	7.65258
548.082	1.94816
550.975	9.22855
553.868	9.82445
556.76	5.44059
559.653	11.5061
562.546	9.21454
565.438	3.61825
568.331	8.07791
571.224	2.52865
574.117	4.89786
577.009	3.60861
579.902	4.72288
582.795	2.06514
585.687	12.8474
588.58	1.14552
591.473	4.30534
594.365	3.42411
597.258	12.5436
600.151	9.24881
603.044	1.97488
605.936	2.66365
608.829	6.31846
611.722	5.18966
614.614	6.36406
617.507	1.34378
620.4	2.49067
623.293	9.68682
626.185	5.39809
629.078	3.90555
631.971	7.47971
634.863	7.39056
637.756	9.09753
640.649	6.25701
643.542	5.44744
646.434	6.19617
649.327	5.72185
652.22	4.44072
655.112	7.08909
658.005	6.13994
660.898	12.5959
663.79	6.5046
666.683	5.62021
669.576	10.0219
672.468	5.75123
675.361	7.78899
678.254	12.5256
681.147	7.12819
684.039	5.1412
686.932	5.8953
689.825	4.37666
692.717	4.11556
695.61	0.196281
698.503	11.8996
701.396	2.77459
704.288	3.61586
707.181	9.23739
710.074	5.13392
712.966	12.9978
715.859	3.64813
718.752	2.9143
721.644	3.49209
724.537	10.4941
727.43	4.72133
730.323	9.04669
733.215	6.93815
736.108	3.73323
739.001	17.0347
741.893	7.06435
744.786	10.6221
747.679	3.60765
750.572	3.49157
753.464	6.62503
756.357	4.11389
759.25	5.00713
762.142	10.3449
765.035	3.74924
767.928	13.3872
770.82	7.36169
773.713	9.28368
776.606	4.23661
779.499	13.571
782.391	3.91381
785.284	7.53656
788.177	8.81185
791.069	4.16667
793.962	6.2263
796.855	6.39808
799.747	5.38486
802.64	8.84647
805.533	7.35902
808.426	5.0195
811.318	9.48804
814.211	5.82871
817.104	9.01332
819.996	4.91474
822.889	5.77533
825.782	4.49822
828.674	7.94065
831.567	5.70875
834.46	4.92128
837.353	11.7934
840.245	9.58015
843.138	7.56793
846.031	7.66581
848.923	4.27532
851.816	3.66111
854.709	6.23623
857.601	15.451
860.494	5.32145
863.387	7.43699
866.28	6.20763
869.172	5.78791
872.065	3.63627
874.958	11.4192
877.851	9.37791
880.743	4.4805
883.636	0.436137
886.529	2.14067
889.421	7.55682
892.314	3.79582
895.207	1.66636
898.099	5.63615
900.992	7.66986
903.885	11.8932
906.778	8.2406
909.67	10.6245
912.563	12.5577
915.456	5.30912
918.348	9.06298
921.241	5.65352
924.134	9.87752
927.026	4.53317
929.919	8.43846
932.812	11.5315
935.705	14.3351
938.597	12.3733
941.49	8.0908
944.383	9.79045
947.275	2.9826
950.168	8.64186
953.061	1.01531
955.953	3.87799
958.846	6.23719
961.739	9.27173
964.631	4.22401
967.524	7.48678
970.417	2.62063
973.31	5.84171
976.202	12.0385
979.095	7.33316
981.988	8.52296
984.88	9.19052
987.773	12.5143
990.666	5.6385
993.559	10.6955
996.451	11.9646
999.344	8.38022
1002.24	11.3445
1005.13	5.29789
1008.02	4.0788
1010.91	3.09889
1013.81	4.52395
1016.7	8.09267
1019.59	10.4655
1022.49	2.70216
1025.38	6.83769
1028.27	4.27964
1031.16	9.49008
1034.06	9.86267
1036.95	11.4638
1039.84	9.91948
1042.73	5.92762
1045.63	5.06694
1048.52	5.38244
1051.41	5.00504
1054.31	11.8542
1057.2	7.4123
1060.09	5.08005
1062.98	10.3881
1065.88	1.5159
1068.77	3.60375
1071.66	6.44948
1074.55	6.2646
1077.45	8.05303
1080.34	4.18223
1083.23	5.0784
1086.12	11.7748
1089.02	2.70594
1091.91	5.63103
1094.8	7.95671
1097.7	9.32161
1100.59	2.06239
1103.48	5.61135
1106.37	3.91238
1109.27	8.48284
1112.16	2.74544
1115.05	9.81423
1117.94	6.41059
1120.84	10.777
1123.73	0.427042
1126.62	2.96618
1129.52	7.89829
1132.41	8.61439
1135.3	4.36151
1138.19	1.00518
1141.09	5.67898
1143.98	6.23019
1146.87	4.69568
1149.77	7.89511
1152.66	3.23194
1155.55	4.62612
1158.44	2.07153
1161.34	5.70168
1164.23	6.72015
1167.12	4.32952
1170.01	9.59886
1172.91	3.9932
1175.8	7.51029
1178.69	6.65851
1181.58	7.7114
1184.48	8.38955
1187.37	6.9321
1190.26	5.23794
1193.15	5.80029
1196.05	1.42102
1198.94	5.21368
1201.83	10.1095
1204.73	10.8616
1207.62	7.03656
1210.51	3.28809
1213.4	4.63075
1216.3	0.323274
1219.19	2.16755
1222.08	4.75651
1224.97	4.3569
1227.87	8.92615
1230.76	3.93958
1233.65	0.045129
1236.55	7.11733
1239.44	3.07215
1242.33	4.39476
1245.22	2.12086
1248.12	3.05747
1251.01	6.53826
1253.9	4.22866
1256.8	7.17483
1259.69	4.66355
1262.58	2.97365
1265.47	8.61602
1268.37	9.91877
1271.26	3.90706
1274.15	11.0461
1277.04	5.42563
1279.94	1.88384
1282.83	1.30477
1285.72	4.67641
1288.61	1.93196
1291.51	6.20575
1294.4	1.411
1297.29	3.7688
1300.18	4.42438
