Measurement: Raman, 532 nm, unoriented, Raman Data Processed
Mineral: Sepiolite
Rruff sample: R070311
Ideal chemistry: Mg_4_Si_6_O_15_(OH)_2_6H_2_O
Locality: Miller Quartz, near Santa Cruz, Santa Cruz County, California, USA
Source: James Shigley
Description: Tan colored compact fibrous
Raman shift (cm-1)	intensity
190.16	0
193.052	61.7305
195.945	50.9375
198.838	152.293
201.731	65.4219
204.623	5.67188
207.516	61.4688
210.409	106.062
213.301	186.254
216.194	163.664
219.087	277.481
221.979	194.773
224.872	256.797
227.765	326.668
230.657	307.348
233.55	246.996
236.443	288.426
239.336	360.488
242.228	260.285
245.121	409.414
248.014	273.66
250.906	255.059
253.799	370.668
256.692	409.445
259.584	304.199
262.477	290.41
265.37	480.203
268.263	272.434
271.155	151.18
274.048	244.359
276.941	348.387
279.833	408.688
282.726	244.602
285.619	177.148
288.512	223.797
291.404	187.359
294.297	259.019
297.19	204.594
300.082	236.168
302.975	168.402
305.868	104.391
308.76	210.535
311.653	176
314.546	33.6797
317.438	135.234
320.331	181.539
323.224	106.051
326.117	28.5703
329.009	107.246
331.902	10.7344
334.795	130.707
337.687	141.957
340.58	225.805
343.473	171.059
346.365	97.7148
349.258	72.2734
352.151	18.0312
355.044	171.348
357.936	31.0234
360.829	81.7695
363.722	96.1484
366.614	35.6055
369.507	41.082
372.4	16.8398
375.293	55.3477
378.185	103.562
381.078	56.6367
383.971	215.699
386.863	9.82812
389.756	55.2812
392.649	196.922
395.541	51.1562
398.434	171.414
401.327	28.2344
404.219	68.8711
407.112	28.7617
410.005	48.5742
412.898	114.019
415.79	15.043
418.683	46.1758
421.576	129.691
424.469	91
427.361	250.254
430.254	162.883
433.147	40.293
436.039	227.887
438.932	0.136719
441.825	150.418
444.717	182.406
447.61	199.582
450.503	173.367
453.396	176.562
456.288	58.6406
459.181	208.156
462.074	135.871
464.966	24.7109
467.859	125.82
470.752	79.8438
473.644	19.9102
476.537	47.3242
479.43	233.617
482.322	55.6953
485.215	186.231
488.108	71.082
491.001	173.141
493.893	272.34
496.786	175.848
499.679	223.414
502.571	92.9961
505.464	144.441
508.357	91.5195
511.25	133.207
514.142	3.67188
517.035	165.227
519.928	144.609
522.82	21.8398
525.713	216.715
528.606	292.762
531.498	59.2109
534.391	95.1914
537.284	133.562
540.177	24.6445
543.069	21.4688
545.962	31.875
548.855	108.758
551.747	83.8828
554.64	50.4844
557.533	145.738
560.425	5.84766
563.318	225.949
566.211	100.375
569.104	46.5039
571.996	22.3477
574.889	15.7188
577.782	68.4375
580.674	251.629
583.567	192.828
586.46	61.0586
589.352	147.219
592.245	216.703
595.138	185.539
598.031	44.7578
600.923	135.43
603.816	258.578
606.709	123.891
609.601	171.195
612.494	235.773
615.387	97.7578
618.279	159.523
621.172	257.719
624.065	263.234
626.958	366.445
629.85	188.422
632.743	426.336
635.636	141.234
638.528	246.75
641.421	285.023
644.314	179.125
647.207	598.164
650.099	301.141
652.992	449.352
655.885	337.68
658.777	363.648
661.67	296.359
664.563	238.891
667.455	355.469
670.348	325.047
673.241	357.086
676.134	192.852
679.026	127.883
681.919	72.7266
684.812	154.305
687.704	111.062
690.597	65.6172
693.49	199.297
696.382	143.07
699.275	196.906
702.168	157.773
705.061	89.0469
707.953	49.0781
710.846	94.9219
713.739	95.3047
716.631	57.5938
719.524	100.484
722.417	95.3438
725.309	52.8516
728.202	90.1641
731.095	62.875
733.987	66.5547
736.88	156.516
739.773	41.1875
742.666	62.375
745.558	175.305
748.451	291.836
751.344	97.7578
754.236	205.43
757.129	70.4844
760.022	23.2188
762.915	113.031
765.807	225.078
768.7	83.7344
771.593	123.07
774.485	104.086
777.378	59.9297
780.271	71.4297
783.163	138.516
786.056	397.492
788.949	98.3516
791.842	47.2031
794.734	218.484
797.627	108.461
800.52	172.805
803.412	167.852
806.305	94.3125
809.198	237.664
812.091	116.008
814.983	301.961
817.876	156.18
820.769	248.773
823.661	210.383
826.554	143.508
829.447	330.523
832.339	136.578
835.232	242.688
838.125	164.438
841.018	164.023
843.91	343.953
846.803	187.047
849.696	278.203
852.588	179.172
855.481	130.664
858.374	61.9688
861.266	414.359
864.159	43.7578
867.052	360.461
869.944	273.562
872.837	257.305
875.73	67.1641
878.623	378.68
881.515	59.3047
884.408	344.023
887.301	348.836
890.193	165.203
893.086	278.133
895.979	190.219
898.871	388.203
901.764	355.203
904.657	86.3438
907.55	311.078
910.442	104.969
913.335	174.672
916.228	245.695
919.12	100.258
922.013	198
924.906	338.938
927.798	7.28125
930.691	39.6406
933.584	204.867
936.477	27.4609
939.369	214.281
942.262	63.6562
945.155	347.141
948.047	172.016
950.94	41.5391
953.833	66.7188
956.726	332.727
959.618	63.1562
962.511	161.352
965.404	145.727
968.296	275.883
971.189	163.867
974.082	167.969
976.974	336.844
979.867	77.7734
982.76	242.875
985.653	174.711
988.545	114.891
991.438	349.047
994.331	199.984
997.223	131.297
1000.12	35.2266
1003.01	201.758
1005.9	62.9297
1008.79	265.25
1011.69	36.0859
1014.58	266.367
1017.47	378.375
1020.37	34.4141
1023.26	167.297
1026.15	352.508
1029.04	151.898
1031.94	121.195
1034.83	124.289
1037.72	65.9141
1040.61	287.383
1043.51	262.438
1046.4	187.148
1049.29	13.0703
1052.18	122.078
1055.08	141.398
1057.97	155.359
1060.86	105.492
1063.76	111.391
1066.65	211.133
1069.54	174.219
1072.43	96.75
1075.33	57.5938
1078.22	333.109
1081.11	122.023
1084	242.773
1086.9	245.773
1089.79	234.523
1092.68	508.562
1095.58	100.359
1098.47	193.172
1101.36	219.758
1104.25	188.977
1107.15	151.25
1110.04	273.016
1112.93	264.703
1115.82	106.398
1118.72	197.656
1121.61	285.914
1124.5	332.031
1127.39	276.133
1130.29	290.883
1133.18	318.43
1136.07	214.297
1138.97	162.883
1141.86	227.398
1144.75	348.656
1147.64	178.453
1150.54	273.844
1153.43	127.414
1156.32	505.102
1159.21	352.484
1162.11	203.453
1165	129.695
1167.89	431.641
1170.79	67.5859
1173.68	343.328
1176.57	138.5
1179.46	281.312
1182.36	287.359
1185.25	170.812
1188.14	286.531
1191.03	286.266
1193.93	373.281
1196.82	533.992
1199.71	280.07
1202.61	340.609
1205.5	52.2656
1208.39	140.055
1211.28	207.977
1214.18	4.89062
1217.07	129.539
1219.96	65.8906
1222.85	271.711
1225.75	278.109
1228.64	80.4141
1231.53	196.781
1234.42	180.664
1237.32	168.602
1240.21	331.078
1243.1	209.641
1246	57.8281
1248.89	148.242
1251.78	254.672
1254.67	252.062
1257.57	511.156
1260.46	322.352
1263.35	242.523
1266.24	334.539
1269.14	219.773
1272.03	196.289
1274.92	341.062
1277.82	465.32
1280.71	358.023
1283.6	232.609
1286.49	191.602
1289.39	241.352
1292.28	151.727
1295.17	416.414
