Measurement: Raman, 785 nm, unoriented, Raman Data Processed
Mineral: Sepiolite
Rruff sample: R070311
Ideal chemistry: Mg_4_Si_6_O_15_(OH)_2_6H_2_O
Locality: Miller Quartz, near Santa Cruz, Santa Cruz County, California, USA
Source: James Shigley
Description: Tan colored compact fibrous
Raman shift (cm-1)	intensity
236.245	0
239.138	90.5947
242.031	146.516
244.923	101.512
247.816	18.3506
250.709	44.6143
253.601	72.2402
256.494	71.5781
259.387	114.381
262.28	18.2236
265.172	99.8916
268.065	115.163
270.958	86.0811
273.85	121.85
276.743	67.7871
279.636	173.4
282.529	122.348
285.421	203.436
288.314	238.514
291.207	142.884
294.099	91.6963
296.992	112.623
299.885	122.54
302.777	120.811
305.67	148.412
308.563	260.611
311.455	200.545
314.348	169.31
317.241	132.182
320.134	166.856
323.026	90.1562
325.919	186.882
328.812	103.842
331.704	105.11
334.597	80.2256
337.49	138.075
340.382	35.4297
343.275	76.1856
346.168	81.8467
349.061	38.8848
351.953	71.3164
354.846	109.855
357.739	91.8574
360.631	26.5352
363.524	1.26953
366.417	55.4766
369.31	5.22461
372.202	43.9346
375.095	42.9619
377.988	39.8008
380.88	9.37695
383.773	58.9941
386.666	90.4365
389.558	23.4766
392.451	7.74805
395.344	91.5557
398.236	26.7686
401.129	94.1562
404.022	73.1328
406.915	52.0488
409.807	29.3018
412.7	5.05371
415.593	100.064
418.485	51.002
421.378	47.1533
424.271	34.5664
427.163	49.8203
430.056	34.7324
432.949	37.4922
435.842	18.8164
438.734	73.9258
441.627	100.625
444.52	19.1035
447.412	51.3584
450.305	24.6807
453.198	80.376
456.091	43.292
458.983	0.104492
461.876	74.2344
464.769	56.0547
467.661	61.4853
470.554	67.9678
473.447	90.1992
476.339	12.3389
479.232	128.143
482.125	90.2734
485.017	96.3242
487.91	106.343
490.803	138.561
493.696	96.21
496.588	118.92
499.481	56.124
502.374	58.3926
505.266	54.6787
508.159	40.6348
511.052	86.8809
513.944	81.3574
516.837	59.6904
519.73	90.6279
522.623	65.0166
525.515	8.03809
528.408	111.804
531.301	18.543
534.193	47.2803
537.086	37.5293
539.979	36.3154
542.871	93.5283
545.764	23.4375
548.657	141.325
551.55	103.714
554.442	117.422
557.335	42.3682
560.228	90.8926
563.12	102.877
566.013	147.084
568.906	99.5752
571.798	23.8818
574.691	159.222
577.584	114.633
580.477	101.275
583.369	49.4482
586.262	75.4209
589.155	23.5361
592.047	9.32715
594.94	44.4941
597.833	52.2959
600.726	17.9883
603.618	58.7412
606.511	85.6787
609.404	46.7168
612.296	67.5312
615.189	20.96
618.082	65.834
620.974	32.4727
623.867	132.903
626.76	85.2949
629.653	49.6211
632.545	20.6543
635.438	101.679
638.331	41.5947
641.223	35.416
644.116	98.4336
647.009	22.8564
649.901	56.3438
652.794	15.7334
655.687	7.70898
658.58	24.0957
661.472	20.209
664.365	16.0449
667.258	31.5732
670.15	1.3916
673.043	48.3662
675.936	54.5225
678.828	12.125
681.721	43.8721
684.614	61.7715
687.506	25.0459
690.399	1.51172
693.292	44.7539
696.185	11.1328
699.077	13.4756
701.97	74.375
704.863	88.0371
707.755	62.3994
710.648	54.8799
713.541	22.7119
716.433	40.4688
719.326	14.7822
722.219	111.129
725.112	73.0928
728.004	29.1426
730.897	115.068
733.79	20.3262
736.682	33.6074
739.575	34.4053
742.468	13.3408
745.361	78.2695
748.253	7.04492
751.146	28.5957
754.039	108.549
756.931	31.3467
759.824	8.0498
762.717	42.6494
765.609	9.60449
768.502	43.2769
771.395	49.4224
774.288	63.9214
777.18	64.6802
780.073	21.8359
782.966	67.3296
785.858	18.6514
788.751	48.8232
791.644	6.06201
794.536	47.1426
797.429	49.1968
800.322	76.9297
803.215	53.7178
806.107	52.3579
809	13.1289
811.893	26.1352
814.785	60.8931
817.678	48.729
820.571	52.5312
823.463	32.8184
826.356	27.6314
829.249	68.8735
832.141	60.7793
835.034	21.6577
837.927	20.644
840.82	20.4243
843.712	56.6528
846.605	95.4424
849.498	31.6558
852.39	50.3682
855.283	12.9355
858.176	70.1616
861.068	54.5913
863.961	26.04
866.854	44.1074
869.747	43.4434
872.639	34.0371
875.532	38.0073
878.425	76.0093
881.317	77.0581
884.21	35.6709
887.103	4.62744
889.995	42.3628
892.888	22.6128
895.781	53.1606
898.674	41.0181
901.566	76.3174
904.459	56.4653
907.352	45.9385
910.244	45.8711
913.137	13.0142
916.03	38.2441
918.923	37.2446
921.815	16.98
924.708	15.1528
927.601	49.9819
930.493	20.4199
933.386	52.7236
936.279	18.0322
939.171	78.9824
942.064	43.0137
944.957	75.9253
947.85	8.62256
950.742	28.7266
953.635	13.3745
956.528	61.936
959.42	18.3174
962.313	24.5561
965.206	40.6719
968.098	37.5308
970.991	5.70606
973.884	26.7246
976.777	62.124
979.669	44.4028
982.562	40.9307
985.455	67.6108
988.347	13.8999
991.24	37.3091
994.133	44.5752
997.025	80.9683
999.918	14.085
1002.81	37.7886
1005.7	68.7749
1008.6	53.5171
1011.49	54.4214
1014.38	37.9126
1017.27	58.1499
1020.17	91.7363
1023.06	35.4712
1025.95	54.1367
1028.85	77.8364
1031.74	35.8408
1034.63	53.273
1037.52	17.5859
1040.42	47.2554
1043.31	68.0249
1046.2	41.7529
1049.09	16.2476
1051.99	32.0195
1054.88	97.6763
1057.77	7.61914
1060.66	57.1309
1063.56	0.51709
1066.45	8.63086
1069.34	41.9605
1072.24	80.1103
1075.13	13.5234
1078.02	27.7944
1080.91	33.5645
1083.81	0.20752
1086.7	29.9673
1089.59	53.6743
1092.48	73.313
1095.38	57.5015
1098.27	45.498
1101.16	29.1655
1104.06	87.5244
1106.95	48.2539
1109.84	92.9429
1112.73	54.5337
1115.63	18.627
1118.52	24.8193
1121.41	75.1865
1124.3	57.4853
1127.2	45.2666
1130.09	42.0137
1132.98	100.411
1135.88	41.7319
1138.77	17.6919
1141.66	61.5727
1144.55	23.021
1147.45	57.9336
1150.34	45.7881
1153.23	57.1626
1156.12	41.1226
1159.02	55.3247
1161.91	12.2134
1164.8	13.2461
1167.69	21.021
1170.59	33.6851
1173.48	49.3555
1176.37	61.4487
1179.27	23.689
1182.16	44.7339
1185.05	42.523
1187.94	91.8916
1190.84	69.7539
1193.73	84.8384
1196.62	56.1553
1199.51	7.61035
1202.41	3.3042
1205.3	16.8267
1208.19	44.7978
1211.09	38.5947
1213.98	63.4736
1216.87	20.6645
1219.76	79.8579
1222.66	26.9644
1225.55	21.8232
1228.44	15.0249
