Measurement: Raman, 780 nm, unoriented, Raman Data Processed
Mineral: Serendibite
Rruff sample: R070622
Ideal chemistry: Ca_4_(Mg_6_Al_6_)O_4_[Si_6_B_3_Al_3_O_36_]
Locality: Sri Lanka
Source: Shinichi Kihara
Description: Deep blue-green vitreous crystals with conchoidal fracture.
Raman shift (cm-1)	intensity
109.395	0
112.287	155.144
115.18	15.7031
118.073	98.3555
120.966	172.971
123.858	466.401
126.751	490.385
129.644	757.197
132.536	1071.25
135.429	924.138
138.322	873.894
141.214	758.571
144.107	698.831
147	779.511
149.893	799.664
152.785	860.007
155.678	928.602
158.571	1031.88
161.464	890.117
164.356	707.102
167.249	578.213
170.142	470.794
173.034	392.423
175.927	425.342
178.82	378.463
181.712	328.841
184.605	237.912
187.498	378.934
190.391	299.282
193.283	303.707
196.176	379.169
199.069	369.41
201.961	309.269
204.854	337.244
207.747	302.592
210.639	287.812
213.532	265.987
216.425	301.914
219.317	317.541
222.21	332.873
225.103	346.353
227.996	357.111
230.888	281.665
233.781	254.079
236.674	166.306
239.566	163.208
242.459	117.653
245.352	135.288
248.244	83.6484
251.137	268.272
254.03	54.2705
256.923	2.99512
259.815	140.395
262.708	45.3945
265.601	17.6738
268.493	86.0615
271.386	48.1963
274.279	98.1387
277.171	164.923
280.064	67.8867
282.957	180.097
285.85	91.4375
288.742	236.532
291.635	338.573
294.528	375.081
297.42	575.487
300.313	510.177
303.206	414.69
306.099	385.402
308.991	360.481
311.884	403.84
314.777	304.642
317.669	216.841
320.562	106.822
323.455	118.023
326.347	128.923
329.24	64.1797
332.133	11.6982
335.026	10.2715
337.918	70.875
340.811	3.07715
343.704	72.7158
346.596	81.6963
349.489	111.683
352.382	143.463
355.274	170.023
358.167	259.269
361.06	205.018
363.952	171.929
366.845	169.645
369.738	73.5381
372.631	128.87
375.523	144.037
378.416	177.169
381.309	168.849
384.201	94.8682
387.094	52.1826
389.987	184.603
392.88	133.789
395.772	79.0186
398.665	127.346
401.558	74.668
404.45	146.398
407.343	132.167
410.236	42.8115
413.128	202.083
416.021	130.662
418.914	181.394
421.807	115.179
424.699	141.27
427.592	197.413
430.485	189.72
433.377	33.7334
436.27	140.541
439.163	3.96387
442.055	120.921
444.948	107.814
447.841	12.6826
450.733	56.0635
453.626	48.7353
456.519	151.057
459.412	106.594
462.304	158.575
465.197	179.909
468.09	153.515
470.982	206.804
473.875	219.661
476.768	149.185
479.661	28.123
482.553	124.783
485.446	98.1709
488.339	18.2607
491.231	18.1182
494.124	104.3
497.017	64.5312
499.909	18.7803
502.802	39.2178
505.695	110.57
508.587	89.8164
511.48	80.1982
514.373	66.25
517.266	171.902
520.158	134.102
523.051	112.629
525.944	189.032
528.836	163.251
531.729	72.0644
534.622	62.1025
537.514	2.68848
540.407	114.294
543.3	50.5303
546.193	17.2617
549.085	23.0596
551.978	77.0283
554.871	64.1172
557.763	172.976
560.656	100.264
563.549	201.769
566.442	216.567
569.334	190.572
572.227	142.341
575.12	172.088
578.012	121.806
580.905	112.513
583.798	208.85
586.69	168.513
589.583	176.4
592.476	107.919
595.369	134.025
598.261	26.1064
601.154	34.3213
604.047	60.8115
606.939	3.82812
609.832	35.5117
612.725	108.161
615.617	179.107
618.51	218.913
621.403	359.003
624.295	360.965
627.188	297.731
630.081	319.575
632.974	330.595
635.866	196.17
638.759	165.455
641.652	127.719
644.544	130.085
647.437	224.572
650.33	135.842
653.222	130.293
656.115	151.935
659.008	260.06
661.901	280.603
664.793	294.486
667.686	262.344
670.579	239.839
673.471	213.725
676.364	252.506
679.257	274.195
682.149	182.585
685.042	131.709
687.935	117.144
690.828	100.033
693.72	100.453
696.613	10.5977
699.506	60.7685
702.398	26.4033
705.291	68.042
708.184	2.8418
711.077	45.0478
713.969	0.025391
716.862	2.58301
719.755	112.273
722.647	66.0439
725.54	106.963
728.433	169.736
731.325	111.156
734.218	111.027
737.111	164.119
740.004	174.59
742.896	312.776
745.789	254.962
748.682	283.335
751.574	249.617
754.467	221.155
757.36	303.604
760.252	315.93
763.145	204.006
766.038	307.979
768.931	203.192
771.823	100.284
774.716	99.0478
777.609	109.228
780.501	46.2139
783.394	103.613
786.287	95.5059
789.179	72.833
792.072	81.8828
794.965	106.83
797.857	106.155
800.75	57.0928
803.643	70.1094
806.536	115.44
809.428	56.2647
812.321	88.3486
815.214	81.7305
818.106	45.6953
820.999	13.793
823.892	6.35644
826.784	74.4492
829.677	5.58398
832.57	54.2588
835.463	55.3525
838.355	19.8301
841.248	57.2197
844.141	16.2715
847.034	37.1455
849.926	21.833
852.819	64.7227
855.712	111.028
858.604	98.5137
861.497	118.588
864.39	116.244
867.282	132.653
870.175	190.686
873.068	265.282
875.961	249.616
878.853	215.513
881.746	306.259
884.639	313.89
887.531	218.43
890.424	293.808
893.317	316.323
896.209	186.588
899.102	156.805
901.995	160.308
904.888	197.662
907.78	61.2598
910.673	155.581
913.566	131.062
916.458	97.6191
919.351	36.1543
922.244	38.8916
925.136	75.915
928.029	41.2393
930.922	42.0547
933.814	70.9844
936.707	121.279
939.6	101.395
942.493	49.2441
945.385	19.335
948.278	98.4463
951.171	122.642
954.063	164.668
956.956	82.5195
959.849	64.5156
962.741	77.3965
965.634	58.1035
968.527	77.5644
971.42	146.288
974.312	167.861
977.205	121.517
980.098	134.101
982.99	112.999
985.883	217.177
988.776	177.799
991.668	137.62
994.561	119.82
997.454	101.566
1000.35	95.8721
1003.24	96.4307
1006.13	154.962
1009.02	71.5859
1011.92	173.326
1014.81	57.625
1017.7	113.493
1020.6	57.4092
1023.49	32.7207
1026.38	67.4883
1029.27	69.4258
1032.17	33.2607
1035.06	103.718
1037.95	16.1211
1040.84	23.6641
1043.74	1.75879
1046.63	122.206
1049.52	83.8784
1052.41	106.343
1055.31	34.4761
1058.2	21.8203
1061.09	75.2817
1063.99	76.5166
1066.88	61.3174
1069.77	7.14893
1072.66	44.0034
1075.56	21.3355
1078.45	17.9058
1081.34	33.6255
1084.23	57.5894
1087.13	54.0791
1090.02	31.7285
1092.91	16.79
1095.81	37.2808
1098.7	30.5215
1101.59	36.3618
1104.48	51.1699
1107.38	196.871
1110.27	68.2827
1113.16	42.4375
1116.06	102.164
1118.95	4.92481
1121.84	23.7227
1124.73	88.9062
1127.62	124.862
1130.52	8.04785
1133.41	74.0644
1136.3	52.9893
1139.2	156.532
1142.09	129.551
1144.98	106.209
1147.87	103.364
1150.77	69.8418
1153.66	185.829
1156.55	76.1558
1159.44	11.207
1162.34	93.2451
1165.23	90.3213
1168.12	71.21
1171.02	55.0855
1173.91	35.6006
1176.8	48.7022
1179.69	24.9873
