Measurement: Raman, 785 nm, unoriented, Raman Data Processed
Mineral: Shandite
Rruff sample: R070090
Ideal chemistry: Pb_2_Ni_3_S_2_
Locality: Nickel Reward mine, Tasmania, Australia
Source: Michael Scott
Description: Bright silver metallic blebs in serpentinite, chonchoidal fracture
Raman shift (cm-1)	intensity
169.04	0
171.932	22.3284
174.825	88.9116
177.718	25.6992
180.61	48.1523
183.503	40.0557
186.396	51.937
189.288	54.5046
192.181	47.7449
195.074	49.8435
197.967	155.756
200.859	53.1067
203.752	93.5715
206.645	113.476
209.537	59.7224
212.43	3.99023
215.323	53.4935
218.215	24.7304
221.108	19.4463
224.001	5.34064
226.894	18.4591
229.786	7.68347
232.679	24.1293
235.572	20.2392
238.464	32.8305
241.357	42.0148
244.25	80.2352
247.143	93.7728
250.035	97.9206
252.928	172.183
255.821	161.067
258.713	134.007
261.606	141.07
264.499	129.484
267.391	129.374
270.284	152.007
273.177	128.553
276.07	108.968
278.962	136.628
281.855	102.181
284.748	111.781
287.64	70.0394
290.533	76.6289
293.426	82.6231
296.318	91.9513
299.211	80.6303
302.104	104.116
304.997	112.225
307.889	107.165
310.782	120.226
313.675	127.628
316.567	79.1924
319.46	69.635
322.353	52.0192
325.245	68.4757
328.138	27.927
331.031	44.1114
333.923	56.9718
336.816	48.1405
339.709	77.8443
342.602	69.5065
345.494	62.2477
348.387	81.3115
351.28	89.7672
354.172	85.3465
357.065	108.646
359.958	64.8715
362.851	30.0149
365.743	26.4642
368.636	11.2494
371.529	4.8476
374.421	2.34769
377.314	52.5731
380.207	95.1492
383.099	74.2029
385.992	59.5134
388.885	53.9457
391.777	40.1131
394.67	28.4985
397.563	2.71988
400.456	9.32812
403.348	18.5328
406.241	14.2106
409.134	6.38855
412.026	10.9073
414.919	1.37851
417.812	13.0028
420.704	8.76938
423.597	26.9565
426.49	31.3686
429.383	8.41989
432.275	9.04294
435.168	13.4453
438.061	4.44141
440.953	1.87555
443.846	20.4134
446.739	26.7111
449.632	35.5795
452.524	21.2504
455.417	54.699
458.31	32.7106
461.202	39.3081
464.095	26.6762
466.988	57.8522
469.88	16.4439
472.773	12.7948
475.666	38.3615
478.558	22.686
481.451	28.7911
484.344	6.61829
487.237	20.5774
490.129	8.09189
493.022	4.73178
495.915	12.6781
498.807	35.2793
501.7	4.27564
504.593	54.9957
507.486	37.3622
510.378	23.3254
513.271	21.5006
516.164	34.8898
519.056	17.7974
521.949	39.0013
524.842	45.19
527.734	30.6576
530.627	18.1649
533.52	13.864
536.413	38.7504
539.305	19.461
542.198	38.423
545.091	17.8765
547.983	30.4124
550.876	26.9625
553.769	17.2178
556.661	20.4391
559.554	28.2443
562.447	39.6874
565.34	14.5696
568.232	20.7868
571.125	16.6203
574.018	24.2168
576.91	27.0421
579.803	13.7871
582.696	19.6763
585.588	31.6751
588.481	0.571594
591.374	9.58945
594.266	14.9463
597.159	40.4701
600.052	27.0732
602.945	26.774
605.837	36.5827
608.73	30.1439
611.623	35.8088
614.515	41.282
617.408	4.84216
620.301	24.9518
623.193	25.089
626.086	23.3832
628.979	4.38815
631.872	2.81122
634.764	14.0817
637.657	14.1064
640.55	25.4968
643.442	9.00769
646.335	6.12411
649.228	3.86594
652.12	9.00549
655.013	39.4351
657.906	28.4076
660.799	27.3968
663.691	9.95004
666.584	21.9367
669.477	27.0061
672.369	36.395
675.262	28.2771
678.155	26.2263
681.048	27.5051
683.94	4.2865
686.833	37.048
689.726	31.5859
692.618	30.2917
695.511	40.2205
698.404	18.2926
701.296	3.64356
704.189	33.191
707.082	52.0853
709.975	25.7491
712.867	15.4241
715.76	32.1613
718.653	25.7628
721.545	19.1107
724.438	6.35446
727.331	7.96335
730.223	16.5862
733.116	30.4915
736.009	26.3273
738.902	4.1318
741.794	25.2791
744.687	17.6735
747.58	19.0452
750.472	11.0367
753.365	3.22519
756.258	15.4859
759.15	23.9117
762.043	6.92487
764.936	4.12866
767.828	19.0922
770.721	21.051
773.614	17.2359
776.507	26.1411
779.399	34.6923
782.292	42.8481
785.185	27.9383
788.077	25.5229
790.97	30.9361
793.863	7.54925
796.755	22.2875
799.648	44.7621
802.541	17.4485
805.434	9.11111
808.326	24.0513
811.219	4.68643
814.112	10.1837
817.004	18.627
819.897	17.2214
822.79	9.44165
825.683	27.7373
828.575	31.5772
831.468	4.78421
834.361	13.878
837.253	16.7806
840.146	13.3309
843.039	15.0682
845.931	25.9511
848.824	22.0619
851.717	5.02704
854.61	8.98779
857.502	8.99408
860.395	43.3134
863.288	35.0197
866.18	46.0677
869.073	39.3332
871.966	35.3477
874.858	15.9017
877.751	56.3882
880.644	34.9647
883.537	11.4884
886.429	13.3958
889.322	10.1793
892.215	14.2306
895.107	37.8979
898	4.95181
900.893	35.5221
903.785	13.1846
906.678	18.412
909.571	15.8118
912.463	20.7723
915.356	33.9235
918.249	16.4282
921.142	13.9221
924.034	35.9746
926.927	36.3795
929.82	30.2074
932.712	26.029
935.605	34.9345
938.498	10.8689
941.39	17.8714
944.283	38.8976
947.176	28.1306
950.069	12.0342
952.961	8.77933
955.854	10.0956
958.747	14.2195
961.639	10.9619
964.532	23.9064
967.425	14.464
970.317	4.53647
973.21	19.8412
976.103	31.3679
978.996	5.78674
981.888	2.37485
984.781	3.53513
987.674	10.6246
990.566	3.99805
993.459	5.73749
996.352	22.1159
999.245	21.6595
1002.14	8.90256
1005.03	1.74426
1007.92	17.8945
1010.82	35.5291
1013.71	33.2338
1016.6	10.0942
1019.49	31.9649
1022.39	13.5164
1025.28	26.2348
1028.17	20.9259
1031.06	8.27005
1033.96	14.1103
1036.85	39.5531
1039.74	36.893
1042.63	39.8568
1045.53	21.2642
1048.42	28.112
1051.31	30.1761
1054.21	21.3023
1057.1	32.3733
1059.99	18.6456
1062.88	34.008
1065.78	21.7851
1068.67	27.7444
1071.56	20.6912
1074.45	23.4882
1077.35	11.1193
1080.24	6.71811
1083.13	22.3289
1086.03	29.2176
1088.92	4.53095
1091.81	8.30222
1094.7	8.02359
1097.6	10.8357
1100.49	37.2828
1103.38	17.9859
1106.27	3.68634
1109.17	31.1557
1112.06	20.053
1114.95	10.1099
1117.85	2.32193
1120.74	4.67755
1123.63	26.4971
1126.52	23.7495
1129.42	26.9099
1132.31	27.6024
1135.2	37.3748
1138.09	11.75
1140.99	26.4736
1143.88	16.4463
1146.77	11.1339
1149.66	20.0278
1152.56	15.6092
1155.45	10.4649
1158.34	7.71167
1161.24	13.7508
1164.13	6.78931
1167.02	1.42313
1169.91	8.01611
1172.81	12.3843
1175.7	17.3194
1178.59	26.7085
1181.48	1.93237
1184.38	15.0146
1187.27	13.6312
1190.16	16.3124
1193.06	24.266
1195.95	15.7633
1198.84	9.15613
1201.73	10.6493
1204.63	12.6357
1207.52	26.6455
1210.41	6.05707
1213.3	23.2418
1216.2	26.0465
1219.09	14.1125
1221.98	14.6731
1224.88	14.61
1227.77	4.98648
1230.66	29.1309
1233.55	0
