Measurement: Raman, 780 nm, unoriented, Raman Data Processed
Mineral: Shcherbakovite
Rruff sample: R080078
Ideal chemistry: K_2_NaTi^4+^_2_(Si_4_O_12_)O(OH)
Locality: Walgidee Hills pegmatite, Kimberley, Western Australia, Australia
Source: Michael Scott
Description: Reddish-brown micro grains in earthy matrix
Raman shift (cm-1)	intensity
152.306	0
155.199	2.98615
158.091	10.2904
160.984	7.04016
163.877	19.9257
166.769	32.0584
169.662	56.4066
172.555	77.7132
175.447	95.5303
178.34	122.661
181.233	152.435
184.126	194.095
187.018	234.231
189.911	257.163
192.804	247.163
195.696	218.281
198.589	186.268
201.482	156.796
204.375	131.608
207.267	124.991
210.16	129.289
213.053	131.582
215.945	128.808
218.838	128.76
221.731	125.67
224.623	126.622
227.516	117.94
230.409	119.996
233.302	120.251
236.194	131.855
239.087	130.127
241.98	132.45
244.872	122.549
247.765	118.615
250.658	86.8993
253.55	67.5803
256.443	37.4294
259.336	7.69263
262.228	9.69898
265.121	25.9804
268.014	30.599
270.907	34.6943
273.799	31.0614
276.692	24.0939
279.585	1.3523
282.477	32.6877
285.37	74.2971
288.263	142.375
291.156	212.732
294.048	311.76
296.941	421.846
299.834	559.427
302.726	709.947
305.619	882.856
308.512	1068.23
311.404	1282.6
314.297	1525.48
317.19	1784.72
320.082	2012.4
322.975	2207.48
325.868	2337.61
328.761	2361.76
331.653	2336.51
334.546	2248.91
337.439	2173.06
340.331	2098.2
343.224	2032.68
346.117	1956.95
349.01	1877.69
351.902	1776.09
354.795	1639.32
357.688	1509.69
360.58	1366.89
363.473	1198.81
366.366	1018.14
369.258	828.076
372.151	665.356
375.044	476.469
377.937	347.928
380.829	217.622
383.722	128.184
386.615	49.9683
389.507	22.6314
392.4	27.2998
395.293	34.0806
398.185	92.167
401.078	134.623
403.971	224.098
406.863	297.228
409.756	369.747
412.649	444.351
415.542	506.775
418.434	546.15
421.327	585.866
424.22	589.126
427.112	575.529
430.005	536.949
432.898	497.238
435.791	424.237
438.683	364.396
441.576	322.104
444.469	311.074
447.361	268.064
450.254	223.995
453.147	194.044
456.039	156.722
458.932	128.843
461.825	95.1152
464.717	89.3696
467.61	51.5808
470.503	39.1384
473.396	22.0676
476.288	18.8933
479.181	7.72852
482.074	7.43164
484.966	2.71045
487.859	5.74341
490.752	21.3921
493.644	20.1228
496.537	17.6787
499.43	18.6465
502.323	9.427
505.215	7.31055
508.108	7.09155
511.001	10.4014
513.893	24.9753
516.786	45.9937
519.679	54.9214
522.572	71.031
525.464	74.3721
528.357	80.1936
531.25	81.4026
534.142	61.9477
537.035	72.7983
539.928	69.9246
542.82	83.5037
545.713	73.0027
548.606	85.6086
551.499	92.9277
554.391	92.1636
557.284	101.935
560.177	106.767
563.069	88.8303
565.962	100.802
568.855	104.565
571.747	87.8262
574.64	90.3884
577.533	87.7183
580.426	86.6755
583.318	77.0608
586.211	65.063
589.104	64.8591
591.996	48.0027
594.889	39.2585
597.782	29.7532
600.674	25.3726
603.567	38.9273
606.46	40.9849
609.352	23.1372
612.245	20.6965
615.138	29.7188
618.03	37.3984
620.923	32.3655
623.816	37.5395
626.709	44.5649
629.601	45.5493
632.494	39.6538
635.387	45.8384
638.279	49.2576
641.172	57.4705
644.065	77.9373
646.957	78.7942
649.85	87.2988
652.743	99.0208
655.636	103.174
658.528	118.966
661.421	130.381
664.314	152.112
667.206	170.086
670.099	177.854
672.992	194.07
675.885	193.489
678.777	172.95
681.67	136.877
684.563	96.4344
687.455	60.0232
690.348	32.4453
693.241	12.9026
696.133	4.12122
699.026	10.0643
701.919	10.8131
704.812	16.7577
707.704	15.3798
710.597	4.94421
713.49	1.75549
716.382	14.7914
719.275	31.1553
722.168	45.991
725.06	65.7253
727.953	88.2767
730.846	114.238
733.739	142.817
736.631	160.044
739.524	175.273
742.417	190.231
745.309	198.05
748.202	214.673
751.095	218.626
753.987	233.174
756.88	241.534
759.773	247.75
762.665	251.768
765.558	270.977
768.451	291.351
771.344	309.963
774.236	337.76
777.129	348.152
780.022	364.295
782.914	358.724
785.807	360.221
788.7	348.409
791.592	317.638
794.485	289.173
797.378	263.779
800.271	231.525
803.163	212.762
806.056	194.16
808.949	178.509
811.841	156.685
814.734	149.914
817.627	159.412
820.519	160.139
823.412	169.42
826.305	177.631
829.198	188.167
832.09	202.165
834.983	198.494
837.876	203.075
840.768	199.157
843.661	181.228
846.554	162.167
849.447	139.68
852.339	111.559
855.232	84.5224
858.125	65.7219
861.017	43.7616
863.91	31.3106
866.803	16.1036
869.695	5.1767
872.588	1.98639
875.481	6.63995
878.374	6.95349
881.266	8.73419
884.159	3.22217
887.052	1.08984
889.944	9.86182
892.837	0.142517
895.73	3.1803
898.622	1.55981
901.515	7.03571
904.408	5.1795
907.301	11.9937
910.193	10.7987
913.086	18.4895
915.979	18.938
918.871	21.6325
921.764	27.4213
924.657	36.9471
927.549	36.9624
930.442	40.765
933.335	39.3369
936.227	40.3457
939.12	40.0609
942.013	40.6743
944.906	45.7619
947.798	55.7787
950.691	79.8758
953.584	106.478
956.476	140.534
959.369	206.824
962.262	342.888
965.154	307.904
968.047	122.26
970.94	55.9479
973.833	25.9014
976.725	7.4129
979.618	15.1012
982.511	1.93311
985.403	1.18475
988.296	5.35938
991.189	1.23462
994.082	2.79254
996.974	1.13519
999.867	3.82233
1002.76	1.4411
1005.65	8.14783
1008.54	5.245
1011.44	10.8992
1014.33	14.0968
1017.22	20.5697
1020.12	22.6121
1023.01	28.8557
1025.9	36.3193
1028.79	45.4188
1031.69	55.7393
1034.58	62.022
1037.47	68.3303
1040.37	75.5621
1043.26	73.3698
1046.15	79.8866
1049.04	83.8711
1051.94	88.4767
1054.83	99.647
1057.72	100.604
1060.61	105.154
1063.51	107.947
1066.4	107.286
1069.29	112.955
1072.18	114.571
1075.08	124.904
1077.97	129.389
1080.86	121.368
1083.76	120.444
1086.65	115.572
1089.54	130.263
1092.43	139.782
1095.33	150.793
1098.22	163.214
1101.11	180.366
1104	174.117
1106.9	183.526
1109.79	194.633
1112.68	190.555
1115.58	196.346
1118.47	190.468
1121.36	187.925
1124.25	200.399
1127.15	197.668
1130.04	199.771
1132.93	191.716
1135.82	193.205
1138.72	167.302
1141.61	94.6377
1144.5	18.429
1147.39	10.1099
1150.29	3.62549
1153.18	3.21728
1156.07	4.9895
1158.96	5.08032
1161.86	10.1287
1164.75	49.8098
1167.64	86.1465
1170.54	118.902
1173.43	175.17
1176.32	182.717
1179.21	147.407
1182.11	128.805
1185	114.645
1187.89	109.992
1190.79	89.1079
1193.68	76.4155
1196.57	31.6704
1199.46	5.37842
