Measurement: Raman, 532 nm, unoriented, Raman Data RAW
Mineral: Shibkovite
Rruff sample: R080040
Ideal chemistry: K_2_Ca_2_(Zn^2+^_3_Si_12_)O_30_
Locality: Dara-i-Pioz Glacier, Alayskiy (Alai) Range, Tien Shan Mts, Region of Republican Subordination, Tajikistan
Source: Michael Scott
Description: Colorless, vitreous, massive containing some black inclusions. Sample fluoresces neon-orange under SWUV light.
Raman shift (cm-1)	intensity
140.962	16111.8
144.337	16573.1
147.712	16694
151.087	17037.9
154.462	17308.7
157.836	17518.9
161.211	17768
164.586	17968.5
167.961	18242.3
171.336	18474.9
174.71	18680.5
178.085	18880.1
181.46	19218.7
184.835	19421.3
188.21	19513.9
191.584	19769.6
194.959	19890.2
198.334	20173
201.709	20465
205.084	20606.5
208.459	20805
211.833	21007.1
215.208	21325.9
218.583	21508.4
221.958	21805.8
225.333	22022.5
228.708	22165.5
232.082	22398.4
235.457	22655.8
238.832	22850.5
242.207	23194.2
245.582	23507.2
248.956	23717.2
252.331	24174.2
255.706	24196.8
259.081	24486
262.456	24786.2
265.83	24980.2
269.205	25281.2
272.58	25500.1
275.955	25781.9
279.33	26014
282.704	26166.4
286.079	26321.6
289.454	26785.2
292.829	27187.5
296.204	27316.4
299.579	27585.8
302.953	27809.2
306.328	27987.3
309.703	28300.3
313.078	28492
316.453	28882.1
319.827	29119.4
323.202	29310.7
326.577	29576
329.952	29807.9
333.327	30132
336.702	30209.7
340.076	30773.3
343.451	30868.3
346.826	31015.2
350.201	31273
353.576	31672.3
356.95	31756.6
360.325	31967.2
363.7	32370
367.075	32667.2
370.45	32931.7
373.825	33236.2
377.199	33422.8
380.574	33647.2
383.949	33895.9
387.324	34279.9
390.699	34415.4
394.074	34657.8
397.448	34784.6
400.823	35317
404.198	35496.9
407.573	35956.9
410.947	36083.7
414.322	36356.2
417.697	36517.7
421.072	36746.3
424.447	37067.2
427.822	37562.2
431.196	37751.8
434.571	37904.4
437.946	38060.5
441.321	38345.6
444.696	38811.2
448.07	39279.7
451.445	39387.2
454.82	39471.4
458.195	39679.9
461.57	39944.8
464.945	40223.1
468.319	40584.8
471.694	40889.1
475.069	41211.3
478.444	41437.6
481.819	41644.5
485.193	41849.2
488.568	42140.6
491.943	42436
495.318	42870.1
498.693	42973.9
502.068	43324.7
505.442	43740.2
508.817	44021.5
512.192	44280.6
515.567	44383
518.942	44695.3
522.317	44847.2
525.691	45188.2
529.066	45495.9
532.441	45765.1
535.816	46187.2
539.191	46254.8
542.565	46696.2
545.94	46868.9
549.315	47235.7
552.69	47626.5
556.065	47617.8
559.439	48100.8
562.814	48289.4
566.189	48464.1
569.564	48705
572.939	49129.4
576.313	49453.6
579.688	49696.6
583.063	49816.2
586.438	50073.7
589.813	50535.9
593.188	50717.2
596.562	50989.1
599.937	51283.3
603.312	51619.4
606.687	51750.9
610.062	52009.3
613.437	52260.9
616.811	52570.4
620.186	52925.1
623.561	53151.1
626.936	53239
630.311	53581.2
633.685	53897.8
637.06	54176.8
640.435	54328.3
643.81	54730.7
647.185	54946.5
650.559	55184.1
653.934	55353.2
657.309	55591.3
660.684	55736.7
664.059	56062.5
667.434	56511.2
670.808	56622.6
674.183	57020.1
677.558	57406
680.933	57558.8
684.308	57699.1
687.683	57885
691.057	58275.9
694.432	58780.4
697.807	58838.7
701.182	58884.4
704.557	59101
707.931	59537.1
711.306	59787.6
714.681	60070.6
718.056	60352.2
721.431	60651.1
724.805	60877.8
728.18	61145.1
731.555	61170.3
734.93	61390.1
738.305	61615.9
741.679	61983.1
745.054	62010.6
748.429	62402.1
751.804	62534.2
755.179	62951.5
758.554	63143.6
761.928	63470.3
765.303	63519.5
768.678	64036.2
772.053	64249.1
775.428	64659.7
778.803	64801.7
782.177	64910.9
785.552	65262
788.927	65603.8
792.302	65722.8
795.677	66005.5
799.051	66144.3
802.426	66342.4
805.801	66677.6
809.176	67014.6
812.551	66978.9
815.926	67009.2
819.3	67524.5
822.675	67634.3
826.05	68097
829.425	68198.6
832.8	68317
836.174	68649.8
839.549	68765.4
842.924	69018.2
846.299	69182.5
849.674	69306.6
853.048	69468.1
856.423	69872.3
859.798	70216
863.173	70080.7
866.548	70472.1
869.923	70813.5
873.297	70872.9
876.672	70829.6
880.047	71135
883.422	71161.9
886.797	71632.5
890.171	71593.9
893.546	71810.2
896.921	71838.8
900.296	71995.4
903.671	72185.7
907.045	72471.7
910.42	72525.1
913.795	72767.8
917.17	73096.1
920.545	73275.7
923.92	73224.9
927.294	73550
930.669	73519.1
934.044	73619.9
937.419	73990.6
940.794	74106.3
944.168	74150
947.543	74304.8
950.918	74435.1
954.293	74481.7
957.668	74651.1
961.043	74935.5
964.417	74998.2
967.792	75178.9
971.167	75499.1
974.542	75439.2
977.917	75595.2
981.291	75776.3
984.666	75846.3
988.041	76226.2
991.416	76271.3
994.791	76117
998.165	76272.1
1001.54	76370.3
1004.91	76640.1
1008.29	76742.6
1011.66	76920.9
1015.04	76892.7
1018.41	77089.2
1021.79	77076.2
1025.16	77160.2
1028.54	77161
1031.91	77370.2
1035.29	77487.6
1038.66	77465.4
1042.04	77353
1045.41	77677
1048.79	77855.8
1052.16	77958.8
1055.54	77767
1058.91	77873.2
1062.29	77932.4
1065.66	77928.9
1069.04	78036.3
1072.41	78167.9
1075.79	78137.7
1079.16	78057.6
1082.54	78249.1
1085.91	78460.9
1089.29	78501.4
1092.66	78522.8
1096.04	78627.1
1099.41	78528.3
1102.79	78805.8
1106.16	78497.7
1109.53	79215.9
1112.91	78864.8
1116.28	78631.7
1119.66	78885.1
1123.03	79078.7
1126.41	78802.9
1129.78	78757.1
1133.16	78739.7
1136.53	78820.4
1139.91	78815.1
1143.28	78927
1146.66	79035.2
1150.03	79318.3
1153.41	79242.2
1156.78	79095.6
1160.16	78923.6
1163.53	79021.4
1166.91	79068
1170.28	78939.7
1173.66	79007.9
1177.03	79041.3
1180.41	78808.3
1183.78	78888.1
1187.15	78805.7
1190.53	78819.8
1193.9	78709.4
1197.28	78848
1200.65	78818.5
1204.03	78671.8
1207.4	78901.3
1210.78	78581.5
1214.15	78717.1
1217.53	78568.4
1220.9	78673.9
1224.28	78479.1
1227.65	78447.3
1231.03	78303.3
1234.4	78489.2
1237.78	78367.9
1241.15	78232.5
1244.53	78293.9
1247.9	78389.9
1251.28	78019.4
1254.65	78322.8
1258.03	77893.9
1261.4	78160.9
1264.78	77960.4
1268.15	77592
1271.53	77978
1274.9	77756.4
1278.28	77613.9
1281.65	77627.6
1285.03	77383.1
1288.4	77272
1291.78	77180.9
1295.15	77164
1298.52	77092.3
1301.9	77429.4
1305.27	76639.7
