Measurement: Raman, 785 nm, unoriented, Raman Data Processed
Mineral: Siegenite
Rruff sample: R050092
Ideal chemistry: Co^2+^Ni^3+^_2_S^2-^_4_
Locality: Bunker Hill mine, Jasper County, Missouri, USA (note that some people think this may be incorrect)
Source: Rock Currier
Description: Silver metallic octahedra coating chalcopyrite
Raman shift (cm-1)	intensity
178.401	0
181.294	4.36768
184.186	21.3691
187.079	52.8086
189.972	184.888
192.864	50.6926
195.757	114.972
198.65	70.8845
201.543	39.0642
204.435	94.8281
207.328	71.2253
210.221	40.3574
213.113	40.3523
216.006	36.5647
218.899	38.731
221.792	51.2808
224.684	46.2808
227.577	16.2695
230.47	0.810059
233.362	9.95801
236.255	18.5225
239.148	4.15625
242.041	68.1072
244.933	18.5247
247.826	48.9172
250.719	37.3254
253.611	82.4785
256.504	139.513
259.397	73.7437
262.289	79.8062
265.182	63.2244
268.075	42.0552
270.967	68.9841
273.86	51.27
276.753	16.3513
279.646	29.8784
282.538	9.03271
285.431	61.1328
288.324	57.9514
291.216	51.8882
294.109	60.6668
297.002	54.6753
299.894	109.787
302.787	171.092
305.68	224.239
308.572	245.823
311.465	219.862
314.358	121.958
317.251	88.3352
320.143	121.909
323.036	68.0237
325.929	57.6619
328.821	14.7803
331.714	49.9133
334.607	30.852
337.5	5.52295
340.392	10.0703
343.285	96.0535
346.178	131.627
349.07	154.169
351.963	184.601
354.856	170.607
357.748	166.81
360.641	90.856
363.534	32.1409
366.426	44.1951
369.319	51.3215
372.212	83.7339
375.105	155.582
377.997	163.151
380.89	242.02
383.783	268.76
386.675	342.655
389.568	296.699
392.461	235.483
395.353	88.9453
398.246	47.0981
401.139	55.8501
404.032	0.878906
406.924	16.6709
409.817	6.23291
412.71	38.9832
415.602	36.498
418.495	35.2236
421.388	27.4351
424.281	0.648682
427.173	22.1443
430.066	43.3428
432.959	74.7727
435.851	2.2124
438.744	81.3845
441.637	17.7791
444.529	11.6948
447.422	25.8464
450.315	12.081
453.208	28.0962
456.1	38.9014
458.993	31.9622
461.886	19.6663
464.778	56.2769
467.671	58.0207
470.564	84.0974
473.457	34.989
476.349	17.7905
479.242	45.3369
482.135	25.5117
485.027	53.0269
487.92	35.3328
490.813	90.7556
493.705	59.5642
496.598	22.1148
499.491	58.4766
502.384	50.5339
505.276	48.3723
508.169	14.958
511.062	61.8479
513.954	23.4544
516.847	9.26245
519.74	30.4248
522.632	11.8579
525.525	4.12085
528.418	2.40332
531.311	79.1348
534.203	11.833
537.096	49.6982
539.989	39.3142
542.881	7.16333
545.774	64.2935
548.667	30.0112
551.559	31.51
554.452	2.39697
557.345	65.2969
560.237	47.0395
563.13	62.8867
566.023	36.3298
568.915	56.9717
571.808	80.6836
574.701	66.9976
577.594	59.9702
580.486	56.7788
583.379	60.7217
586.272	75.5693
589.164	61.7234
592.057	4.25317
594.95	37.9998
597.842	2.40137
600.735	56.2427
603.628	19.4429
606.521	46.333
609.413	61.0195
612.306	53.8501
615.199	36.8018
618.091	10.5474
620.984	26.6599
623.877	48.8821
626.769	63.4849
629.662	64.0383
632.555	4.49829
635.448	40.2124
638.34	28.7725
641.233	20.8733
644.126	25.7866
647.018	18.717
649.911	60.5154
652.804	38.2188
655.697	1.25122
658.589	30.7449
661.482	15.8291
664.375	73.374
667.267	47.7849
670.16	62.2329
673.053	34.7368
675.945	6.00732
678.838	48.0918
681.731	18.0503
684.624	27.95
687.516	3.6853
690.409	29.9102
693.302	16.9002
696.194	36.4507
699.087	19.9666
701.98	27.5781
704.872	30.759
707.765	44.1221
710.658	52.5344
713.551	37.8074
716.443	26.7358
719.336	39.8923
722.229	53.7798
725.121	64.3821
728.014	20.1709
730.907	46.8284
733.799	66.9314
736.692	12.4692
739.585	43.7415
742.477	40.0339
745.37	46.5532
748.263	44.9211
751.156	31.8696
754.048	39.5581
756.941	51.9912
759.834	52.1521
762.726	52.0549
765.619	21.8811
768.512	73.4866
771.404	32.9333
774.297	17.2844
777.19	99.8572
780.083	27.6477
782.975	58.6753
785.868	13.6643
788.761	4.60498
791.653	28.2275
794.546	46.6453
797.439	50.7974
800.332	10.0386
803.224	21.2854
806.117	52.5232
809.01	49.2908
811.902	28.2354
814.795	31.1758
817.688	60.3738
820.58	32.2764
823.473	36.8535
826.366	1.10303
829.259	41.2136
832.151	46.6414
835.044	49.6543
837.937	29.2571
840.829	42.6892
843.722	21.1038
846.615	50.4165
849.507	24.3362
852.4	6.97192
855.293	8.67627
858.186	41.7717
861.078	19.5571
863.971	40.1162
866.864	51.5947
869.756	24.2517
872.649	29.2791
875.542	17.2312
878.434	18.8896
881.327	48.9766
884.22	34.2222
887.112	32.0457
890.005	27.7544
892.898	51.7812
895.791	19.2752
898.683	27.075
901.576	20.626
904.469	18.0085
907.361	56.7993
910.254	10.8428
913.147	27.6086
916.04	48.2017
918.932	43.9128
921.825	38.592
924.718	40.1211
927.61	40.0095
930.503	41.5046
933.396	31.4209
936.288	12.8403
939.181	46.2986
942.074	20.802
944.967	42.1274
947.859	22.7449
950.752	12.6912
953.645	8.82959
956.537	22.7105
959.43	59.3044
962.323	35.7454
965.216	77.75
968.108	20.4758
971.001	25.5613
973.894	40.0278
976.786	58.083
979.679	63.852
982.572	60.8171
985.464	32.614
988.357	44.313
991.25	56.2293
994.143	29.2324
997.035	71.9238
999.928	23.1321
1002.82	41.0496
1005.71	91.0102
1008.61	45.2229
1011.5	65.6279
1014.39	23.3125
1017.28	36.4326
1020.18	62.5222
1023.07	13.6028
1025.96	17.4404
1028.86	60.0757
1031.75	1.88769
1034.64	7.5144
1037.53	44.676
1040.43	27.238
1043.32	35.7668
1046.21	3.83228
1049.1	10.7661
1052	55.6172
1054.89	35.2007
1057.78	16.3037
1060.67	3.60718
1063.57	70.7483
1066.46	50.55
1069.35	43.456
1072.24	26.0579
1075.14	15.1174
1078.03	53.8794
1080.92	43.1265
1083.82	25.6843
1086.71	4.84741
1089.6	40.8328
1092.49	22.7986
1095.39	64.3154
1098.28	31.8347
1101.17	11.5845
1104.07	3.58374
1106.96	20.0796
1109.85	21.3596
1112.74	14.2144
1115.64	14.3084
1118.53	58.2349
1121.42	26.6514
1124.31	40.8918
1127.21	53.0356
1130.1	29.2329
1132.99	46.8037
1135.88	29.707
1138.78	50.1406
1141.67	48.0874
1144.56	25.6548
1147.46	47.3481
1150.35	50.093
1153.24	21.4189
1156.13	45.7639
1159.03	9.92041
1161.92	127.202
1164.81	49.3552
1167.7	56.2324
1170.6	61.1836
1173.49	42.5352
1176.38	29.9946
1179.28	69.4946
1182.17	0.078613
1185.06	48.0825
1187.95	52.4468
1190.85	33.1797
1193.74	59.4602
1196.63	40.0818
1199.52	41.9665
1202.42	32.4727
1205.31	37.2918
1208.2	71.6724
1211.1	6.43164
1213.99	58.2727
1216.88	0.702148
1219.77	78.2432
1222.67	44.0305
1225.56	33.5269
1228.45	57.2229
1231.34	26.7827
1234.24	59.4316
1237.13	82.6172
1240.02	1.18726
1242.91	0
