Measurement: Raman, 532 nm, unoriented, Raman Data Processed
Mineral: Siegenite
Rruff sample: R070252
Ideal chemistry: Co^2+^Ni^3+^_2_S^2-^_4_
Locality: Gruge Viktoria Musen, Siegen, Siegerland, North Rhine-Westphalia, Germany
Source: Michael Scott
Description: Steel gray cubo-octahedra associated with dark gray tetrahedrite (with parallel growth on corners), siderite and minor quartz
Measured chemistry: Co_1.00_(Ni_1.56_Co_0.42_Fe_0.02_)_Î£=2_S_4_
Raman shift (cm-1)	intensity
163.161	0
166.054	22.2483
168.946	8.13574
171.839	13.1078
174.732	30.1691
177.625	40.1143
180.517	37.5534
183.41	25.9542
186.303	34.6241
189.195	46.6429
192.088	34.1585
194.981	37.5824
197.874	42.2856
200.766	42.0713
203.659	60.3614
206.552	34.4461
209.444	30.623
212.337	18.7501
215.23	19.5211
218.122	46.7936
221.015	12.1213
223.908	34.0308
226.8	37.8566
229.693	60.7927
232.586	72.258
235.479	58.3489
238.371	62.2727
241.264	60.7816
244.157	57.0612
247.049	45.9856
249.942	53.1113
252.835	56.9506
255.727	49.0683
258.62	46.6588
261.513	51.2367
264.406	35.0267
267.298	16.8392
270.191	9.0094
273.084	13.7579
275.976	17.4442
278.869	13.4694
281.762	45.3215
284.655	27.4657
287.547	15.7534
290.44	18.2776
293.333	43.7629
296.225	33.6167
299.118	44.2378
302.011	45.5947
304.904	47.8655
307.796	48.272
310.689	57.603
313.582	35.0802
316.474	46.1554
319.367	32.4404
322.26	22.934
325.152	2.026
328.045	40.5513
330.938	17.9008
333.83	5.98413
336.723	11.0791
339.616	17.1692
342.509	40.7794
345.401	25.4652
348.294	37.2488
351.187	57.066
354.079	55.1634
356.972	31.4866
359.865	31.7617
362.757	25.3746
365.65	45.4722
368.543	19.2102
371.436	32.839
374.328	59.8326
377.221	58.8081
380.114	73.0306
383.006	70.5173
385.899	58.4852
388.792	72.6363
391.685	46.5082
394.577	47.5338
397.47	7.25342
400.363	6.2926
403.255	28.3888
406.148	17.4128
409.041	9.28674
411.933	20.324
414.826	27.9125
417.719	8.81409
420.611	25.3127
423.504	3.34155
426.397	25.5751
429.29	66.4054
432.182	22.5321
435.075	29.4791
437.968	32.0406
440.86	45.1587
443.753	36.7169
446.646	14.2322
449.538	25.7463
452.431	21.7495
455.324	16.8972
458.217	23.9083
461.109	40.2008
464.002	66.4646
466.895	26.9824
469.787	38.4351
472.68	35.8832
475.573	29.0552
478.466	35.1631
481.358	30.368
484.251	39.2618
487.144	41.5293
490.036	7.92041
492.929	54.817
495.822	19.9961
498.714	7.15356
501.607	43.8701
504.5	24.1266
507.393	1.21228
510.285	26.4353
513.178	25.0073
516.071	20.9883
518.963	35.2173
521.856	18.067
524.749	26.3158
527.641	14.5309
530.534	38.681
533.427	32.4246
536.32	33.7632
539.212	6.54773
542.105	5.69006
544.998	38.1969
547.89	11.9655
550.783	38.5984
553.676	29.4048
556.568	28.8315
559.461	25.9949
562.354	30.1322
565.247	22.3331
568.139	40.7921
571.032	18.9205
573.925	8.84595
576.817	9.65979
579.71	34.179
582.603	3.00903
585.495	20.8462
588.388	11.6028
591.281	5.18494
594.174	23.8151
597.066	8.07129
599.959	5.37463
602.852	32.2289
605.744	10.0684
608.637	4.42676
611.53	17.2783
614.423	30.7692
617.315	6.53625
620.208	23.0433
623.101	2.81445
625.993	21.4049
628.886	3.43115
631.779	1.49548
634.671	6.58167
637.564	22.1903
640.457	39.6046
643.35	33.499
646.242	52.663
649.135	22.3035
652.028	27.5561
654.92	77.108
657.813	24.1505
660.706	52.2092
663.598	39.6262
666.491	25.0691
669.384	7.68005
672.277	2.22717
675.169	29.053
678.062	7.53357
680.955	12.8788
683.847	7.81702
686.74	28.9537
689.633	56.5408
692.525	22.4008
695.418	34.389
698.311	30.8982
701.204	4.2262
704.096	19.223
706.989	18.6332
709.882	45.2623
712.774	33.4044
715.667	20.1455
718.56	40.7734
721.452	3.74475
724.345	34.6304
727.238	47.6639
730.131	35.8921
733.023	11.6634
735.916	15.1517
738.809	25.6185
741.701	33.6495
744.594	40.3649
747.487	12.9468
750.38	28.6215
753.272	2.1615
756.165	24.6428
759.058	14.305
761.95	24.4244
764.843	24.7625
767.736	40.6816
770.628	36.8297
773.521	38.7228
776.414	29.2384
779.307	27.8773
782.199	12.2145
785.092	27.4574
787.985	31.8724
790.877	10.7869
793.77	46.2982
796.663	23.3142
799.555	12.1248
802.448	6.73877
805.341	53.0533
808.234	26.3113
811.126	24.6804
814.019	4.91687
816.912	22.8948
819.804	37.9163
822.697	7.0459
825.59	58.2797
828.482	20.6671
831.375	37.5712
834.268	52.6941
837.16	22.5291
840.053	26.9454
842.946	15.0867
845.839	26.646
848.731	20.5117
851.624	45.0712
854.517	18.1604
857.409	30.1041
860.302	24.4486
863.195	17.0182
866.087	53.2668
868.98	37.9517
871.873	16.712
874.766	37.0063
877.658	37.7129
880.551	59.8013
883.444	4.30383
886.337	22.0559
889.229	36.2118
892.122	32.5825
895.015	22.3889
897.907	15.8325
900.8	14.0896
903.693	19.6194
906.585	16.1477
909.478	16.7044
912.371	59.1826
915.264	29.4805
918.156	33.3842
921.049	31.3072
923.942	55.8668
926.834	16.7377
929.727	11.0778
932.62	49.4243
935.512	37.9945
938.405	3.52881
941.298	32.2422
944.191	4.48731
947.083	35.2213
949.976	0.864258
952.869	25.6107
955.761	51.5038
958.654	33.7573
961.547	37.6445
964.439	4.21204
967.332	4.37939
970.225	12.5455
973.117	53.1787
976.01	54.265
978.903	83.145
981.796	75.0347
984.688	49.3068
987.581	44.9032
990.474	23.4846
993.366	44.2019
996.259	17.678
999.152	42.6106
1002.04	40.9524
1004.94	24.6317
1007.83	49.1245
1010.72	22.2214
1013.62	21.626
1016.51	20.3957
1019.4	36.2419
1022.29	5.36279
1025.19	5.18457
1028.08	38.3892
1030.97	22.7383
1033.86	13.6023
1036.76	0.882813
1039.65	13.7239
1042.54	24.2712
1045.43	29.4028
1048.33	36.4263
1051.22	30.8262
1054.11	28.7234
1057.01	61.1108
1059.9	16.9888
1062.79	3.18945
1065.68	78.3118
1068.58	60.1035
1071.47	35.8044
1074.36	47.156
1077.26	11.8816
1080.15	37.5776
1083.04	33.5688
1085.93	34.5469
1088.83	14.7532
1091.72	54.2847
1094.61	26.3921
1097.5	34.3281
1100.4	43.8843
1103.29	7.41919
1106.18	25.4746
1109.07	31.595
1111.97	42.5278
1114.86	42.207
1117.75	10.8774
1120.64	11.8599
1123.54	7.97827
1126.43	18.7168
1129.32	34.6692
1132.22	11.158
1135.11	38.0232
1138	25.7341
1140.89	32.9944
1143.79	29.0596
1146.68	39.1301
1149.57	34.5195
1152.46	63.2368
1155.36	34.0708
1158.25	20.9443
1161.14	41.187
1164.04	37.5913
1166.93	40.6091
1169.82	55.5642
1172.71	14.4719
1175.61	25.6548
1178.5	43.1223
1181.39	28.2656
1184.29	2.90283
1187.18	47.6006
1190.07	14.6729
1192.96	39.6348
1195.86	9.948
1198.75	26.0344
1201.64	28.9512
1204.53	24.6641
1207.43	59.906
1210.32	74.4929
1213.21	28.6309
1216.1	1.06519
1219	26.6592
1221.89	21.3547
1224.78	31.6714
1227.67	43.2786
1230.57	29.8408
1233.46	17.1209
1236.35	51.606
1239.25	58.3455
1242.14	92.3179
1245.03	16.9717
1247.92	45.3494
1250.82	20.4033
1253.71	53.5327
1256.6	63.54
1259.49	62.1162
1262.39	41.1055
1265.28	9.73462
1268.17	71.8816
1271.07	60.4329
1273.96	78.0283
1276.85	48.0889
1279.74	30.0847
1282.64	12.9485
1285.53	25.9793
1288.42	55.6514
1291.32	26.0005
1294.21	24.5991
1297.1	23.7393
1299.99	35.8162
1302.88	22.2283
1305.78	10.3428
