Measurement: Raman, 532 nm, unoriented, Raman Data Processed
Mineral: Siegenite
Rruff sample: R050092
Ideal chemistry: Co^2+^Ni^3+^_2_S^2-^_4_
Locality: Bunker Hill mine, Jasper County, Missouri, USA (note that some people think this may be incorrect)
Source: Rock Currier
Description: Silver metallic octahedra coating chalcopyrite
Raman shift (cm-1)	intensity
147.994	0
151.369	4.22217
154.744	14.8979
158.119	38.9424
161.494	62.0911
164.868	50.445
168.243	63.28
171.618	84.2299
174.993	61.1589
178.368	85.4341
181.743	63.54
185.117	51.5568
188.492	74.4104
191.867	68.9604
195.242	44.773
198.617	83.025
201.991	39.0228
205.366	52.7801
208.741	46.2795
212.116	35.3765
215.491	13.514
218.865	17.3646
222.24	21.4279
225.615	36.2052
228.99	30.3392
232.365	61.9705
235.74	24.1741
239.114	10.2447
242.489	37.4859
245.864	24.7759
249.239	21.8716
252.614	53.2996
255.988	43.1279
259.363	31.3289
262.738	3.94043
266.113	31.7825
269.488	10.3908
272.863	5.77393
276.237	34.2975
279.612	11.5308
282.987	13.9095
286.362	31.978
289.737	32.568
293.111	35.663
296.486	49.3147
299.861	74.0757
303.236	72.5008
306.611	88.4225
309.986	93.8848
313.36	40.7551
316.735	47.5801
320.11	23.4202
323.485	11.8263
326.86	25.2577
330.235	26.8373
333.609	6.43481
336.984	4.41699
340.359	0.660889
343.734	14.7826
347.109	15.58
350.483	49.6603
353.858	31.469
357.233	32.2615
360.608	35.4017
363.983	64.4465
367.358	3.85315
370.732	34.4374
374.107	50.2412
377.482	49.0814
380.857	66.5139
384.232	52.2131
387.606	75.9332
390.981	63.4663
394.356	70.0417
397.731	22.024
401.106	8.72363
404.481	25.4316
407.855	15.328
411.23	17.5245
414.605	4.24194
417.98	59.6185
421.355	39.1143
424.729	9.99536
428.104	18.2231
431.479	43.0371
434.854	40.9362
438.229	10.1055
441.603	23.0973
444.978	31.1128
448.353	5.80103
451.728	21.3426
455.103	18.6824
458.478	29.4979
461.852	20.9399
465.227	46.0675
468.602	34.5436
471.977	23.5037
475.352	31.5758
478.726	38.3666
482.101	26.4293
485.476	25.9821
488.851	3.09009
492.226	20.7838
495.601	0.307617
498.975	9.21533
502.35	23.4883
505.725	19.4556
509.1	9.77685
512.475	9.328
515.85	10.582
519.224	17.017
522.599	9.17114
525.974	16.9561
529.349	7.4386
532.724	32.5911
536.098	24.6033
539.473	37.511
542.848	20.1879
546.223	14.9098
549.598	30.7918
552.972	19.1771
556.347	12.6108
559.722	17.901
563.097	4.0846
566.472	6.0614
569.847	50.5657
573.221	44.4072
576.596	9.63208
579.971	38.0984
583.346	18.6976
586.721	5.67871
590.096	1.58936
593.47	35.7493
596.845	22.9817
600.22	41.0178
603.595	1.8092
606.97	39.9445
610.344	15.0861
613.719	6.51025
617.094	46.5315
620.469	11.2449
623.844	25.6721
627.218	18.8163
630.593	19.7893
633.968	28.7959
637.343	24.5526
640.718	28.0641
644.093	23.8201
647.467	10.1127
650.842	19.8909
654.217	8.32129
657.592	27.5361
660.967	38.8923
664.341	33.933
667.716	12.582
671.091	14.7407
674.466	39.9719
677.841	24.605
681.216	5.16077
684.591	38.5078
687.965	39.2626
691.34	9.37354
694.715	8.15222
698.09	32.3575
701.465	14.4876
704.839	15.0143
708.214	22.1414
711.589	21.8009
714.964	6.03027
718.339	32.0283
721.713	4.60693
725.088	4.29907
728.463	24.672
731.838	26.6774
735.213	8.51038
738.587	22.4716
741.962	26.4642
745.337	8.94031
748.712	34.7395
752.087	2.07617
755.462	21.7164
758.836	28.752
762.211	35.2185
765.586	30.0605
768.961	22.9761
772.336	27.8074
775.711	32.3898
779.085	24.4606
782.46	33.9784
785.835	14.177
789.21	18.7196
792.585	19.0275
795.959	4.28906
799.334	19.3597
802.709	23.6534
806.084	34.4775
809.459	28.5305
812.833	43.2974
816.208	28.7706
819.583	32.3992
822.958	61.0393
826.333	15.4862
829.708	25.4645
833.082	5.03027
836.457	27.1444
839.832	33.0133
843.207	26.2377
846.582	5.55933
849.957	44.5387
853.331	20.5032
856.706	27.2158
860.081	51.6041
863.456	20.8744
866.831	7.19458
870.205	46.4816
873.58	39.165
876.955	42.8603
880.33	57.3815
883.705	11.0411
887.08	27.8695
890.454	31.6836
893.829	23.5593
897.204	36.6522
900.579	30.0863
903.954	6.64722
907.328	11.2582
910.703	28.3367
914.078	2.28113
917.453	14.5054
920.828	43.3458
924.202	25.7709
927.577	35.4793
930.952	12.9866
934.327	45.1755
937.702	27.8983
941.077	29.1278
944.451	8.77893
947.826	5.72388
951.201	18.9078
954.576	24.3671
957.951	22.0853
961.326	28.7065
964.7	52.9646
968.075	55.6477
971.45	18.4722
974.825	9.0907
978.2	19.5409
981.574	14.6333
984.949	0.750732
988.324	10.6903
991.699	45.6572
995.074	38.3518
998.448	31.5469
1001.82	39.6529
1005.2	14.1282
1008.57	18.8008
1011.95	35.7048
1015.32	11.5858
1018.7	13.8961
1022.07	13.2777
1025.45	32.004
1028.82	20.3483
1032.2	17.0291
1035.57	51.3802
1038.95	45.6282
1042.32	9.15124
1045.7	29.2666
1049.07	36.5835
1052.45	31.8037
1055.82	5.16418
1059.19	11.0403
1062.57	72.1976
1065.94	39.6564
1069.32	44.3491
1072.69	25.5017
1076.07	28.6758
1079.44	40.9979
1082.82	31.5979
1086.19	61.5132
1089.57	33.4532
1092.94	7.04468
1096.32	17.1802
1099.69	26.1587
1103.07	30.2561
1106.44	45.8662
1109.82	6.29675
1113.19	36.0465
1116.57	21.3782
1119.94	38.2869
1123.32	28.022
1126.69	36.1101
1130.07	39.3873
1133.44	48.0013
1136.82	12.718
1140.19	27.6521
1143.57	33.3851
1146.94	43.7571
1150.32	30.4945
1153.69	3.1471
1157.07	62.9884
1160.44	42.3624
1163.82	36.7438
1167.19	34.5553
1170.56	46.1676
1173.94	37.2012
1177.31	14.0975
1180.69	59.4126
1184.06	37.4733
1187.44	7.91211
1190.81	39.3359
1194.19	30.615
1197.56	20.1287
1200.94	6.38867
1204.31	19.5898
1207.69	0.663086
1211.06	48.8909
1214.44	45.0974
1217.81	20.5024
1221.19	29.5056
1224.56	40.0017
1227.94	32.1208
1231.31	22.8425
1234.69	31.4302
1238.06	33.0461
1241.43	13.7812
1244.81	20.6592
1248.18	72.989
1251.56	32.9477
1254.93	30.4946
1258.31	62.0549
1261.68	22.5378
1265.06	68.2424
1268.43	1.82275
1271.81	30.5842
1275.18	52.5806
1278.56	61.2302
1281.93	37.5034
1285.31	55.2
1288.68	56.5266
1292.06	22.3682
1295.43	50.1672
1298.81	2.19604
1302.18	29.8635
1305.56	30.4204
1308.93	20.0222
1312.31	7.14111
1315.68	16.552
