Measurement: Raman, 532 nm, unoriented, Raman Data RAW
Mineral: Silver
Rruff sample: R070416
Ideal chemistry: Ag
Locality: Frontier mine, South Lorrain, Timiskaming District, Ontario, Canada
Source: Royal Ontario Museum
Description: Silver-white metallic wires with grey to bronze colored tarnished surface
Measured chemistry: Ag
Raman shift (cm-1)	intensity
151.59	973.798
154.965	1061.3
158.34	1014.16
161.715	1039.98
165.09	1025.16
168.464	1025.5
171.839	1094.33
175.214	1052
178.589	1055.15
181.964	1037.65
185.339	1079.66
188.713	1079.15
192.088	1065.14
195.463	1063.14
198.838	1029.86
202.213	1072.52
205.587	1025.53
208.962	1056.51
212.337	1000.5
215.712	1010.06
219.087	1041.93
222.462	994.841
225.836	1020.93
229.211	1027.88
232.586	1024.4
235.961	1001.63
239.336	1014.38
242.71	1027.28
246.085	1011.2
249.46	1032.78
252.835	1007.16
256.21	1009.91
259.584	995.294
262.959	1036.04
266.334	1016.72
269.709	1010.89
273.084	1009.46
276.459	989.739
279.833	990.001
283.208	990.489
286.583	984.081
289.958	990.411
293.333	969.987
296.707	981.078
300.082	988.869
303.457	973.502
306.832	994.146
310.207	969.977
313.582	984.171
316.956	971.682
320.331	977.407
323.706	967.588
327.081	959.405
330.456	980.017
333.83	987.186
337.205	975.237
340.58	959.234
343.955	968.646
347.33	982.225
350.705	987.856
354.079	965.888
357.454	989.227
360.829	965.077
364.204	979.725
367.579	959.204
370.954	957.616
374.328	966.921
377.703	968.38
381.078	960.602
384.453	956.66
387.828	945.856
391.202	965.043
394.577	925.149
397.952	945.559
401.327	928.424
404.702	931.121
408.077	942.443
411.451	946.966
414.826	940.021
418.201	922.256
421.576	929.022
424.951	926.337
428.325	936.721
431.7	923.254
435.075	912.61
438.45	916.087
441.825	934.421
445.2	927.349
448.574	935.314
451.949	910.497
455.324	931.198
458.699	921.542
462.074	943.383
465.448	901.657
468.823	904.304
472.198	923.416
475.573	910.968
478.948	895.953
482.322	909.17
485.697	908.062
489.072	920.465
492.447	890.806
495.822	883.211
499.197	902.501
502.571	907.681
505.946	896.724
509.321	870.085
512.696	892.185
516.071	891.759
519.446	888.096
522.82	894.157
526.195	872.165
529.57	861.942
532.945	878.119
536.32	875.63
539.694	874.207
543.069	869.349
546.444	859.142
549.819	860.978
553.194	871.969
556.568	848.677
559.943	840.783
563.318	828.43
566.693	849.686
570.068	840.169
573.443	839.714
576.817	838.766
580.192	878.282
583.567	851.007
586.942	845.196
590.317	860.48
593.692	828.39
597.066	814.519
600.441	817.924
603.816	795.928
607.191	808.473
610.566	823.308
613.94	778.295
617.315	805.727
620.69	808.715
624.065	829.102
627.44	799.152
630.814	795.148
634.189	811.191
637.564	795.75
640.939	803.676
644.314	792.829
647.689	781.962
651.063	806.036
654.438	783.248
657.813	784.151
661.188	771.025
664.563	750.186
667.938	787.936
671.312	772.269
674.687	785.828
678.062	776.753
681.437	753.243
684.812	781.731
688.186	742.024
691.561	754.214
694.936	743.842
698.311	747.864
701.686	747.969
705.061	752.261
708.435	736.48
711.81	746.068
715.185	740.495
718.56	762.344
721.935	744.812
725.309	726.762
728.684	712.409
732.059	723
735.434	732.442
738.809	736.849
742.183	721.21
745.558	701.881
748.933	714.599
752.308	737.267
755.683	708.28
759.058	704.242
762.432	708.198
765.807	696.952
769.182	706.077
772.557	664.533
775.932	717.617
779.307	685.991
782.681	661.658
786.056	676.528
789.431	676.917
792.806	687.797
796.181	689.794
799.555	660.976
802.93	678.808
806.305	674.839
809.68	655.297
813.055	668.902
816.429	652.524
819.804	637.055
823.179	658.985
826.554	647.529
829.929	659.752
833.304	636.224
836.678	654.008
840.053	635.588
843.428	668.417
846.803	653.326
850.178	650.122
853.553	630.721
856.927	638.386
860.302	641.41
863.677	644.178
867.052	636.831
870.427	643.855
873.801	631.736
877.176	634.021
880.551	633.759
883.926	637.934
887.301	612.162
890.676	631.777
894.05	615.373
897.425	631.923
900.8	618.01
904.175	595.674
907.55	590.058
910.924	619.75
914.299	635.903
917.674	619.963
921.049	625.531
924.424	640.942
927.798	634.096
931.173	620.516
934.548	593.338
937.923	592.165
941.298	603.326
944.673	585.15
948.047	608.804
951.422	597.602
954.797	585.853
958.172	581.369
961.547	589.197
964.922	582.667
968.296	586.422
971.671	583.659
975.046	553.022
978.421	578.309
981.796	592.828
985.17	561.393
988.545	597.265
991.92	565.998
995.295	585.529
998.67	596.572
1002.04	574.465
1005.42	580.348
1008.79	589.359
1012.17	561.718
1015.54	566.239
1018.92	581.641
1022.29	585.649
1025.67	570.807
1029.04	578.094
1032.42	575.816
1035.79	581.572
1039.17	550.854
1042.54	567.698
1045.92	571.812
1049.29	545.574
1052.67	560.387
1056.04	547.023
1059.42	545.451
1062.79	557.75
1066.17	544.755
1069.54	544.259
1072.92	530.5
1076.29	518.837
1079.66	546.949
1083.04	537.505
1086.41	533.124
1089.79	521.253
1093.16	529.171
1096.54	523.205
1099.91	529.854
1103.29	536.273
1106.66	519.28
1110.04	512.088
1113.41	506.536
1116.79	525.18
1120.16	512.665
1123.54	495.992
1126.91	506.929
1130.29	522.706
1133.66	484.785
1137.04	474.543
1140.41	503.431
1143.79	506.287
1147.16	495.38
1150.54	491.825
1153.91	505.337
1157.29	496.735
1160.66	476.045
1164.04	488.064
1167.41	455.894
1170.79	493.178
1174.16	476.893
1177.54	486.322
1180.91	484.949
1184.29	477.72
1187.66	490.441
1191.03	499.892
1194.41	489.307
1197.78	473.109
1201.16	491.846
1204.53	497.366
1207.91	468.826
1211.28	474.679
1214.66	497.604
1218.03	477.264
1221.41	453.066
1224.78	481.98
1228.16	485.835
1231.53	489.39
1234.91	481.13
1238.28	489.657
1241.66	475.823
1245.03	473.251
1248.41	462.097
1251.78	488.763
1255.16	474.203
1258.53	478.633
1261.91	485.364
1265.28	462.674
1268.65	454.498
1272.03	452.708
1275.4	468.453
1278.78	467.322
1282.15	454.902
1285.53	477.199
1288.9	467.808
1292.28	479.011
1295.65	472.62
1299.03	480.377
1302.4	476.066
1305.78	468.636
1309.15	486.174
