Measurement: Raman, 532 nm, unoriented, Raman Data Processed
Mineral: Silver
Rruff sample: R070463
Ideal chemistry: Ag
Locality: Tsumeb mine, Tsumeb, Otavi District, Oshikoto, Namibia
Source: Michael Scott
Description: Silvery gold metallic blebs, associated with rhobohedral calcite and green prismatic malachite.
Measured chemistry: Ag ; (Hg trace)
Raman shift (cm-1)	intensity
186.314	0
189.207	10.9595
192.1	1.95312
194.992	37.522
197.885	72.2495
200.778	75.5552
203.67	77.8023
206.563	90.2617
209.456	182.421
212.348	158.458
215.241	172.591
218.134	232.606
221.026	207.481
223.919	259.526
226.812	310.47
229.705	315.259
232.597	314.608
235.49	399.821
238.383	426.104
241.275	427.006
244.168	407.219
247.061	454.058
249.954	394.107
252.846	394.371
255.739	315.614
258.632	314.175
261.524	320.717
264.417	348.166
267.31	331.082
270.202	286.76
273.095	274.547
275.988	252.411
278.881	246.383
281.773	266.6
284.666	215.881
287.559	283.513
290.451	216.416
293.344	176.299
296.237	213.825
299.13	132.768
302.022	153.242
304.915	111.916
307.808	78.4075
310.7	70.9849
313.593	104.293
316.486	61.1545
319.378	84.0266
322.271	34.5962
325.164	38.98
328.057	37.0544
330.949	17.3896
333.842	36.2197
336.735	17.8252
339.627	0.786621
342.52	23.5591
345.413	20.0269
348.305	19.8047
351.198	7.00439
354.091	13.6108
356.983	3.41675
359.876	0.990723
362.769	13.1677
365.662	9.31763
368.554	27.3452
371.447	49.0347
374.34	32.7241
377.232	62.8599
380.125	59.6604
383.018	48.0994
385.911	59.1169
388.803	80.2048
391.696	91.7273
394.589	90.1973
397.481	80.1941
400.374	86.6443
403.267	95.0169
406.159	100.624
409.052	104.573
411.945	99.4458
414.837	108.506
417.73	71.3606
420.623	114.974
423.516	133.451
426.408	107.499
429.301	117.858
432.194	195.246
435.086	137.056
437.979	174.127
440.872	143.377
443.764	131.348
446.657	142.225
449.55	97.4819
452.443	131.511
455.335	184.85
458.228	114.624
461.121	128.801
464.014	72.8369
466.906	47.5298
469.799	48.0674
472.692	39.0046
475.584	49.2854
478.477	36.4529
481.37	53.2869
484.262	48.2156
487.155	2.37524
490.048	31.7351
492.94	12.7725
495.833	9.8252
498.726	19.4883
501.619	42.1895
504.511	26.1926
507.404	6.88159
510.297	21.1008
513.189	39.7815
516.082	38.7673
518.975	42.6514
521.867	21.7144
524.76	17.1399
527.653	51.7004
530.546	5.25415
533.438	29.011
536.331	10.8501
539.224	16.6104
542.116	64.8423
545.009	26.0857
547.902	29.6738
550.794	9.39307
553.687	1.88696
556.58	19.8931
559.473	30.6502
562.365	7.00122
565.258	12.2234
568.151	35.0857
571.043	35.5791
573.936	50.2295
576.829	29.7119
579.721	22.2747
582.614	12.8962
585.507	13.7275
588.4	45.5154
591.292	25.7732
594.185	26.9714
597.078	32.6057
599.97	24.47
602.863	62.7876
605.756	84.646
608.649	61.9116
611.541	75.5254
614.434	63.9097
617.327	49.0627
620.219	6.81201
623.112	82.5908
626.005	1.22559
628.897	33.4954
631.79	52.8757
634.683	42.1243
637.576	37.4622
640.468	46.7156
643.361	50.825
646.254	62.6445
649.146	90.144
652.039	115.412
654.932	91.2983
657.824	84.8057
660.717	83.6108
663.61	104.836
666.503	77.2993
669.395	96.5676
672.288	58.3618
675.181	85.6916
678.073	66.3696
680.966	49.554
683.859	101.55
686.751	26.772
689.644	49.2544
692.537	47.6904
695.43	35.1895
698.322	21.626
701.215	34.8223
704.108	1.52002
707	57.4253
709.893	14.2705
712.786	6.7937
715.678	13.0786
718.571	23.3506
721.464	21.7564
724.357	61.4124
727.249	45.427
730.142	7.59351
733.035	7.6792
735.927	51.1528
738.82	25.6272
741.713	31.6306
744.606	24.5288
747.498	41.7268
750.391	33.9946
753.284	16.8298
756.176	29.0166
759.069	19.6694
761.962	67.1189
764.854	15.9412
767.747	41.0083
770.64	51.7817
773.533	22.448
776.425	13.7207
779.318	4.79736
782.211	25.9849
785.103	42.1106
787.996	42.2295
790.889	38.0769
793.781	42.2639
796.674	12.5373
799.567	2.271
802.46	26.2566
805.352	5.07861
808.245	37.7107
811.138	25.7004
814.03	35.8794
816.923	28.5312
819.816	22.1299
822.708	21.5701
825.601	36.9211
828.494	75.8581
831.386	15.5559
834.279	12.6343
837.172	42.2114
840.065	53.832
842.957	48.073
845.85	51.417
848.743	58.175
851.635	46.696
854.528	7.1333
857.421	47.5312
860.313	56.1597
863.206	30.4758
866.099	62.8582
868.992	53.8555
871.884	23.6191
874.777	43.6435
877.67	30.8196
880.562	20.1694
883.455	15.1257
886.348	29.6338
889.24	73.688
892.133	44.9363
895.026	67.397
897.919	39.3694
900.811	8.75024
903.704	19.0403
906.597	26.168
909.489	41.3071
912.382	23.7532
915.275	0.881348
918.168	26.5286
921.06	18.6875
923.953	0.279053
926.846	14.21
929.738	28.916
932.631	39.1179
935.524	36.532
938.416	19.1811
941.309	34.8931
944.202	34.9619
947.095	9.87427
949.987	3.88403
952.88	4.52222
955.773	24.1704
958.665	5.13037
961.558	47.5471
964.451	27.4487
967.343	8.8252
970.236	13.6877
973.129	14.2256
976.021	32.9807
978.914	50.9448
981.807	19.8533
984.7	5.12427
987.592	27.769
990.485	26.8189
993.378	23.248
996.27	2.44751
999.163	20.1328
1002.06	14.2034
1004.95	18.8762
1007.84	19.312
1010.73	65.635
1013.63	57.1787
1016.52	48.0488
1019.41	38.8391
1022.3	26.0488
1025.2	51.2068
1028.09	63.4092
1030.98	51.5752
1033.88	41.5647
1036.77	9.20703
1039.66	16.4463
1042.55	36.072
1045.45	16.9192
1048.34	32.6951
1051.23	46.648
1054.12	22.9529
1057.02	0.105225
1059.91	58.2134
1062.8	32.2835
1065.69	16.3726
1068.59	46.5605
1071.48	50.4815
1074.37	44.1392
1077.27	46.5491
1080.16	32.9473
1083.05	67.1807
1085.94	51.4043
1088.84	40.8447
1091.73	14.6082
1094.62	10.7117
1097.52	36.6743
1100.41	34.4985
1103.3	6.67969
1106.19	54.096
1109.09	7.68945
1111.98	41.6265
1114.87	48.7688
1117.76	31.5041
1120.66	24.7505
1123.55	14.9028
1126.44	37.3755
1129.34	25.3669
1132.23	40.2913
1135.12	27.0532
1138.01	26.7227
1140.91	36.406
1143.8	35.1599
1146.69	5.53125
1149.58	47.6392
1152.48	39.1965
1155.37	18.0173
1158.26	15.3735
1161.15	19.0288
1164.05	33.9822
1166.94	73.7498
1169.83	4.11987
1172.72	33.4971
1175.62	33.9387
1178.51	29.2417
1181.4	64.8701
1184.3	41.4988
1187.19	28.5979
1190.08	62.0278
1192.97	67.1706
1195.87	49.5627
1198.76	66.6936
1201.65	43.7683
1204.55	11.5144
1207.44	12.5562
1210.33	25.6946
1213.22	3.82104
1216.12	14.3052
1219.01	86.3423
1221.9	80.1238
1224.79	52.531
1227.69	20.4905
1230.58	31.1462
1233.47	26.7056
1236.37	10.2883
1239.26	40.5601
1242.15	25.2163
1245.04	5.6604
1247.94	18.1367
1250.83	58.3247
1253.72	22.6668
1256.61	29.8023
1259.51	56.1028
1262.4	46.3599
1265.29	10.6836
1268.18	54.4502
1271.08	24.1536
1273.97	32.1946
1276.86	11.0523
1279.76	38.7524
1282.65	31.7615
1285.54	69.4824
1288.43	55.7173
1291.33	60.5832
1294.22	51.092
1297.11	27.2168
1300	0.929199
