Measurement: Raman, 780 nm, unoriented, Raman Data RAW
Mineral: Sogdianite
Rruff sample: R050648
Ideal chemistry: KZr^4+^_2_(Li_3_Si_12_)O_30_
Locality: Dara-i-Pioz, Tadjikistan
Source: Dmitri Belakyovski
Description: Purple tabular fragment, used in the Geiger & Grodzicki (2012) study
Measured chemistry: ([box]_1.13_Na_0.87_)_Σ=2_K_1.00_Li_3.00_(Zr_0.76_Fe^3+^_0.73_Ti_0.37_Al_0.14_)_Σ=2_Si_12.00_O_30_ ; Li not measured but estimated by difference and charge balance.
Raman shift (cm-1)	intensity
104.078	329992
107.453	330350
110.828	331991
114.203	333757
117.578	335022
120.952	337280
124.327	340076
127.702	343600
131.077	346936
134.452	349220
137.826	351950
141.201	355524
144.576	359159
147.951	369301
151.326	369229
154.701	367329
158.075	369055
161.45	372354
164.825	374889
168.2	378146
171.575	380913
174.949	383957
178.324	388150
181.699	390689
185.074	394052
188.449	396641
191.823	400194
195.198	403437
198.573	406646
201.948	408710
205.323	412582
208.697	415747
212.072	419255
215.447	422564
218.822	426343
222.197	429759
225.572	434217
228.946	436942
232.321	439987
235.696	443376
239.071	446913
242.446	450850
245.821	454826
249.195	458612
252.57	461841
255.945	464875
259.32	469017
262.695	473533
266.069	477389
269.444	481369
272.819	485036
276.194	489619
279.569	493429
282.943	498206
286.318	499889
289.693	502932
293.068	505172
296.443	508000
299.817	512482
303.192	515760
306.567	519622
309.942	524041
313.317	527058
316.692	531148
320.066	534659
323.441	538270
326.816	542317
330.191	547905
333.566	552881
336.94	557964
340.315	561821
343.69	564344
347.065	567453
350.44	571234
353.815	575216
357.189	579087
360.564	582637
363.939	585921
367.314	589406
370.689	595895
374.063	597867
377.438	602101
380.813	606230
384.188	609429
387.563	614145
390.938	617982
394.312	621183
397.687	627099
401.062	632039
404.437	636013
407.812	641094
411.186	644992
414.561	649430
417.936	653095
421.311	659386
424.686	665164
428.06	668579
431.435	674879
434.81	680149
438.185	686621
441.56	690521
444.935	698044
448.309	707162
451.684	715619
455.059	716950
458.434	716763
461.809	719884
465.183	723133
468.558	728239
471.933	732156
475.308	736485
478.683	739298
482.058	742970
485.432	747014
488.807	752382
492.182	756608
495.557	760999
498.932	764895
502.306	767880
505.681	774057
509.056	777316
512.431	783690
515.806	788676
519.181	792398
522.555	797528
525.93	800832
529.305	805688
532.68	810713
536.055	814710
539.429	819982
542.804	824930
546.179	829344
549.554	834046
552.929	841232
556.303	846715
559.678	851932
563.053	855943
566.428	860942
569.803	866726
573.178	871703
576.552	876949
579.927	881945
583.302	887627
586.677	895232
590.052	900219
593.426	905254
596.801	908944
600.176	915301
603.551	919645
606.926	927046
610.301	931394
613.675	937482
617.05	943121
620.425	947796
623.8	953627
627.174	958717
630.549	963493
633.924	969718
637.299	975911
640.674	981878
644.049	986313
647.423	992682
650.798	996424
654.173	1.00154e+06
657.548	1.0058e+06
660.923	1.0098e+06
664.298	1.01436e+06
667.672	1.02075e+06
671.047	1.02554e+06
674.422	1.03274e+06
677.797	1.03766e+06
681.172	1.04335e+06
684.546	1.049e+06
687.921	1.05393e+06
691.296	1.05731e+06
694.671	1.0642e+06
698.046	1.07006e+06
701.42	1.07541e+06
704.795	1.08025e+06
708.17	1.08684e+06
711.545	1.09394e+06
714.92	1.09878e+06
718.294	1.10481e+06
721.669	1.11106e+06
725.044	1.11506e+06
728.419	1.12067e+06
731.794	1.12749e+06
735.169	1.13335e+06
738.543	1.13872e+06
741.918	1.14501e+06
745.293	1.1518e+06
748.668	1.15523e+06
752.043	1.16224e+06
755.418	1.16528e+06
758.792	1.17164e+06
762.167	1.17974e+06
765.542	1.18368e+06
768.917	1.18938e+06
772.292	1.19668e+06
775.666	1.20525e+06
779.041	1.21001e+06
782.416	1.21782e+06
785.791	1.22376e+06
789.166	1.23196e+06
792.54	1.2387e+06
795.915	1.24524e+06
799.29	1.2502e+06
802.665	1.25574e+06
806.04	1.26297e+06
809.414	1.27255e+06
812.789	1.28062e+06
816.164	1.28475e+06
819.539	1.29114e+06
822.914	1.29807e+06
826.289	1.30713e+06
829.663	1.31485e+06
833.038	1.32037e+06
836.413	1.32743e+06
839.788	1.33355e+06
843.163	1.33612e+06
846.538	1.34203e+06
849.912	1.34819e+06
853.287	1.35765e+06
856.662	1.364e+06
860.037	1.3695e+06
863.412	1.37522e+06
866.786	1.381e+06
870.161	1.3883e+06
873.536	1.39536e+06
876.911	1.40162e+06
880.286	1.40616e+06
883.66	1.41467e+06
887.035	1.42104e+06
890.41	1.4261e+06
893.785	1.4338e+06
897.16	1.43791e+06
900.534	1.44317e+06
903.909	1.44743e+06
907.284	1.45525e+06
910.659	1.46355e+06
914.034	1.47104e+06
917.409	1.47674e+06
920.783	1.48276e+06
924.158	1.49041e+06
927.533	1.49432e+06
930.908	1.50283e+06
934.283	1.5079e+06
937.658	1.51314e+06
941.032	1.52289e+06
944.407	1.52898e+06
947.782	1.53365e+06
951.157	1.5396e+06
954.532	1.54778e+06
957.906	1.55471e+06
961.281	1.56222e+06
964.656	1.56401e+06
968.031	1.57092e+06
971.406	1.57615e+06
974.78	1.58484e+06
978.155	1.58902e+06
981.53	1.59512e+06
984.905	1.60136e+06
988.28	1.60884e+06
991.654	1.61636e+06
995.029	1.623e+06
998.404	1.62994e+06
1001.78	1.63758e+06
1005.15	1.64467e+06
1008.53	1.65081e+06
1011.9	1.65749e+06
1015.28	1.66348e+06
1018.65	1.66985e+06
1022.03	1.67977e+06
1025.4	1.68583e+06
1028.78	1.69296e+06
1032.15	1.69674e+06
1035.53	1.70385e+06
1038.9	1.7121e+06
1042.28	1.71689e+06
1045.65	1.7248e+06
1049.03	1.73432e+06
1052.4	1.74117e+06
1055.78	1.74704e+06
1059.15	1.75114e+06
1062.53	1.76028e+06
1065.9	1.76324e+06
1069.28	1.76812e+06
1072.65	1.77707e+06
1076.03	1.78427e+06
1079.4	1.78934e+06
1082.77	1.7952e+06
1086.15	1.80142e+06
1089.52	1.80877e+06
1092.9	1.81484e+06
1096.27	1.81801e+06
1099.65	1.82487e+06
1103.02	1.8311e+06
1106.4	1.83496e+06
1109.77	1.84388e+06
1113.15	1.84945e+06
1116.52	1.85483e+06
1119.9	1.86178e+06
1123.27	1.87397e+06
1126.65	1.87624e+06
1130.02	1.88404e+06
1133.4	1.89103e+06
1136.77	1.90061e+06
1140.15	1.90737e+06
1143.52	1.91408e+06
1146.9	1.91981e+06
1150.27	1.92897e+06
1153.65	1.9352e+06
1157.02	1.94242e+06
1160.39	1.95432e+06
1163.77	1.96215e+06
1167.14	1.96734e+06
1170.52	1.97379e+06
1173.89	1.9812e+06
1177.27	1.98579e+06
1180.64	1.99799e+06
1184.02	2.00371e+06
1187.39	2.01023e+06
1190.77	2.0195e+06
1194.14	2.0221e+06
1197.52	2.02782e+06
1200.89	2.02994e+06
1204.27	2.04085e+06
1207.64	2.04695e+06
1211.02	2.05194e+06
1214.39	2.05964e+06
1217.77	2.06376e+06
1221.14	2.06214e+06
1224.52	2.06782e+06
1227.89	2.07706e+06
1231.27	2.08172e+06
1234.64	2.09052e+06
1238.02	2.09463e+06
1241.39	2.09922e+06
1244.77	2.10481e+06
1248.14	2.11504e+06
1251.52	2.12079e+06
1254.89	2.12491e+06
1258.27	2.13022e+06
1261.64	2.13862e+06
1265.01	2.14837e+06
1268.39	2.15542e+06
1271.76	2.16326e+06
1275.14	2.17106e+06
1278.51	2.18284e+06
1281.89	2.184e+06
1285.26	2.19668e+06
