Measurement: Raman, 780 nm, unoriented, Raman Data Processed
Mineral: Spangolite
Rruff sample: R060135
Ideal chemistry: Cu^2+^_6_AlS^6+^O_4_(OH)_12_Cl3H_2_O
Locality: Blanchard mine, Hansonburg District, Socorro County, New Mexico, USA
Source: University of Arizona Mineral Museum
Description: Bluish-green stubby hexagonal pyramids
Measured chemistry: Cu_6.00_Al_1.00_(S_1.00_O_4_)Cl_1.00_(OH)_12_Â·3H_2_O
Raman shift (cm-1)	intensity
152.29	0
155.183	0.138894
158.075	0.325246
160.968	0.403818
163.861	0.639664
166.753	0.986613
169.646	0.870084
172.539	1.25088
175.431	1.11677
178.324	0.416542
181.217	0.098292
184.11	0.220038
187.002	0.012493
189.895	0.008495
192.788	0.082715
195.68	0.106552
198.573	0.029643
201.466	0.123232
204.358	0.114261
207.251	0.154975
210.144	0.10588
213.037	0.113652
215.929	0.423611
218.822	0.344297
221.715	0.596841
224.607	1.27638
227.5	1.36154
230.393	1.67024
233.286	1.49639
236.178	1.0261
239.071	1.38549
241.964	1.92551
244.856	1.81932
247.749	2.13494
250.642	1.22025
253.534	0.784537
256.427	0.726823
259.32	0.631443
262.212	0.151153
265.105	0.188471
267.998	0.39722
270.891	0.35598
273.783	0.491074
276.676	0.014925
279.569	0.428556
282.461	0.376348
285.354	0.22675
288.247	0.01696
291.139	0.043057
294.032	0.033494
296.925	0.045364
299.817	0.129266
302.71	0.455262
305.603	0.633875
308.496	0.426464
311.388	0.483731
314.281	0.225281
317.174	0.234915
320.066	0.658338
322.959	0.05295
325.852	0.03043
328.745	0.086815
331.637	0.614462
334.53	0.221747
337.423	0.127433
340.315	0.327767
343.208	0.712776
346.101	0.280049
348.993	0.124288
351.886	0.344651
354.779	0.718122
357.671	0.910671
360.564	0.032659
363.457	0.296638
366.35	0.455062
369.242	0.048277
372.135	0.880919
375.028	0.477469
377.92	0.404701
380.813	0.171194
383.706	0.305724
386.599	0.369563
389.491	0.502855
392.384	0.107401
395.277	1.09842
398.169	0.408418
401.062	0.911152
403.955	0.274575
406.847	0.663656
409.74	0.488488
412.633	0.374384
415.526	0.612735
418.418	0.507279
421.311	0.292262
424.204	0.036227
427.096	0.635379
429.989	0.233647
432.882	0.580115
435.774	0.471358
438.667	0.076074
441.56	0.033313
444.452	0.021784
447.345	0.067144
450.238	0.036329
453.13	0.379357
456.023	0.038
458.916	0.018035
461.809	0.278005
464.701	0.148228
467.594	0.036896
470.487	0.494278
473.379	0.250453
476.272	0.50731
479.165	0.417304
482.058	0.424717
484.95	0.882533
487.843	0.469179
490.736	0.485558
493.628	0.034106
496.521	0.213623
499.414	0.324847
502.306	0.999726
505.199	0.911196
508.092	0.535733
510.985	0.932702
513.877	0.840898
516.77	0.847461
519.663	0.702425
522.555	0.452492
525.448	0.845902
528.341	0.396024
531.233	0.023578
534.126	0.904074
537.019	0.026972
539.912	0.637191
542.804	0.291463
545.697	0.332507
548.59	0.316551
551.482	0.487771
554.375	0.019692
557.268	0.367245
560.16	0.021513
563.053	0.597331
565.946	0.0456
568.838	0.149446
571.731	0.00837
574.624	0.54988
577.516	0.36517
580.409	0.535953
583.302	0.271879
586.195	0.040379
589.087	0.343278
591.98	0.529383
594.873	0.509181
597.765	0.256696
600.658	0.422084
603.551	0.241147
606.443	0.772267
609.336	0.610019
612.229	0.592633
615.122	0.496552
618.014	0.043315
620.907	0.559554
623.8	0.632503
626.692	0.493857
629.585	0.015957
632.478	0.008419
635.37	0.674823
638.263	0.520293
641.156	0.503778
644.049	0.648386
646.941	1.10468
649.834	0.139651
652.727	0.710281
655.619	0.940946
658.512	0.742561
661.405	0.092332
664.298	0.138681
667.19	0.163921
670.083	0.670894
672.976	0.154047
675.868	0.08741
678.761	0.339362
681.654	0.638365
684.546	0.046431
687.439	0.099312
690.332	0.295013
693.225	0.449682
696.117	0.508902
699.01	0.166414
701.903	0.204817
704.795	0.150584
707.688	0.19688
710.581	0.524368
713.473	0.19171
716.366	0.145249
719.259	0.782817
722.151	0.796769
725.044	0.116157
727.937	0.043393
730.83	0.1194
733.722	0.662232
736.615	0.07561
739.508	1.01455
742.4	0.13397
745.293	0.245245
748.186	0.634766
751.078	0.000584
753.971	0.015963
756.864	0.016015
759.756	0.455124
762.649	0.476701
765.542	0.193142
768.435	0.416109
771.327	0.267833
774.22	0.012838
777.113	0.983356
780.005	0.487343
782.898	0.191257
785.791	0.047389
788.683	0.114608
791.576	0.783169
794.469	0.049888
797.362	0.3438
800.254	0.019313
803.147	1.0284
806.04	0.213948
808.932	0.251707
811.825	0.599881
814.718	0.440379
817.611	1.0302
820.503	0.746129
823.396	0.777554
826.289	0.026487
829.181	0.40978
832.074	0.262233
834.967	0.048913
837.859	0.396041
840.752	0.997024
843.645	0.737868
846.538	0.916906
849.43	0.313772
852.323	0.588486
855.216	0.728649
858.108	0.810469
861.001	0.856659
863.894	0.668045
866.786	0.753396
869.679	0.573728
872.572	0.940194
875.464	1.0433
878.357	0.044566
881.25	0.391885
884.143	0.732025
887.035	0.533852
889.928	0.015917
892.821	0.213563
895.713	0.04
898.606	0.126013
901.499	0.127604
904.391	0.155994
907.284	0.345493
910.177	0.493687
913.069	0.055833
915.962	0.035135
918.855	0.174743
921.748	0.210952
924.64	0.410004
927.533	0.11884
930.426	0.010666
933.318	0.020829
936.211	0.27974
939.104	0.337207
941.996	0.001168
944.889	0.567684
947.782	0.454468
950.675	0.244382
953.567	0.776743
956.46	0.973372
959.353	0.683664
962.245	1.85241
965.138	2.25799
968.031	2.18882
970.923	1.48433
973.816	1.13329
976.709	0.906581
979.602	0.70218
982.494	0.443723
985.387	0.324246
988.28	0.51885
991.172	0.759432
994.065	0.906376
996.958	0.029227
999.851	0.155517
1002.74	0.050141
1005.64	0.078122
1008.53	0.033832
1011.42	0.302227
1014.31	0.028168
1017.21	0.01078
1020.1	0.018902
1022.99	0.182345
1025.88	0.004253
1028.78	0.015677
1031.67	0.456954
1034.56	0.017534
1037.46	0.267647
1040.35	0.180651
1043.24	0.340102
1046.13	0.112099
1049.03	0.432069
1051.92	0.416899
1054.81	0.362287
1057.7	0.021729
1060.6	0.039545
1063.49	0.253452
1066.38	0.425468
1069.28	0.45092
1072.17	0.556695
1075.06	0.401549
1077.95	0.715143
1080.85	1.06778
1083.74	0.932407
1086.63	0.252903
1089.52	0.005885
1092.42	0.684739
1095.31	0.014751
1098.2	0.424091
1101.1	0.667632
1103.99	0.418421
1106.88	0.379804
1109.77	0.682411
1112.67	0.4107
1115.56	0.317032
1118.45	0.551636
1121.34	0.436721
1124.24	0.516773
1127.13	0.338457
1130.02	0.05924
1132.91	0.043807
1135.81	0.036847
1138.7	0.806215
1141.59	0.521324
1144.48	0.043026
1147.38	0.799798
1150.27	0.29365
1153.16	0.415788
1156.06	0.461343
1158.95	0.744278
1161.84	0.064583
1164.73	0.172963
1167.63	0.194946
1170.52	0.183521
1173.41	0.979746
1176.31	0.419888
1179.2	0.564177
1182.09	0.942634
1184.98	0.283824
1187.88	0.530427
1190.77	0.106909
1193.66	0.009372
1196.55	0.307439
1199.45	0.245232
1202.34	0.350687
1205.23	0.059159
1208.12	0.312508
1211.02	0.032556
1213.91	0.643943
1216.8	0.362117
1219.7	0.118245
1222.59	0.624095
1225.48	0.499889
1228.37	0.332459
1231.27	0.80201
1234.16	0.322439
1237.05	0.370369
1239.94	0.514679
1242.84	0.460699
1245.73	0.12211
1248.62	0.495946
1251.52	0.528952
1254.41	0.814501
1257.3	0.503383
1260.19	0.43485
1263.09	0.013348
1265.98	0.701237
1268.87	0.882931
1271.76	0.734514
1274.66	0.366281
1277.55	0.029402
1280.44	0.025575
1283.34	0.637651
1286.23	0
