Measurement: Raman, 780 nm, unoriented, Raman Data Processed
Mineral: Spangolite
Rruff sample: R080023
Ideal chemistry: Cu^2+^_6_AlS^6+^O_4_(OH)_12_Cl3H_2_O
Locality: Mex-Tex mine, Hansonberg Mining District, Bingham, Socorro County, New Mexico, USA
Source: William W. Pinch
Description: Deep bluish green doubly terminated and pyramidal crystals associated with quartz
Raman shift (cm-1)	intensity
108.492	0
111.866	7.36286
115.241	3.23796
118.616	8.66717
121.991	6.98216
125.365	5.84819
128.74	6.23035
132.115	6.36849
135.49	2.50887
138.865	1.36912
142.24	1.55413
145.614	1.29369
148.989	2.79833
152.364	3.89738
155.739	9.27503
159.114	7.55276
162.488	11.9226
165.863	11.0831
169.238	5.95934
172.613	3.78192
175.988	0.988712
179.363	1.73735
182.737	5.20002
186.112	5.18477
189.487	0.285454
192.862	0.283703
196.237	3.3277
199.612	2.88502
202.986	7.34327
206.361	6.16485
209.736	2.91492
213.111	8.2847
216.486	4.02386
219.86	7.26353
223.235	10.1392
226.61	7.91078
229.985	7.09905
233.36	3.91196
236.734	4.74103
240.109	9.60942
243.484	0.432228
246.859	11.0941
250.234	9.91983
253.609	6.52776
256.983	10.3629
260.358	10.6922
263.733	5.88909
267.108	3.49842
270.483	10.8929
273.858	4.11815
277.232	0.001556
280.607	5.94221
283.982	6.23348
287.357	0.529613
290.731	5.02026
294.106	3.12956
297.481	8.8863
300.856	4.55203
304.231	7.00782
307.606	10.2777
310.98	2.69636
314.355	3.46178
317.73	2.5107
321.105	2.86306
324.48	7.82473
327.854	8.5531
331.229	2.33802
334.604	4.72274
337.979	7.6666
341.354	5.75585
344.729	0.744669
348.103	8.62895
351.478	4.27634
354.853	2.04655
358.228	5.05765
361.603	4.927
364.978	3.07179
368.352	0.939003
371.727	7.70367
375.102	4.9801
378.477	7.89229
381.852	7.20799
385.226	2.25214
388.601	0.707167
391.976	4.54263
395.351	2.57145
398.726	12.9227
402.101	7.60691
405.475	9.77632
408.85	9.90336
412.225	12.9263
415.6	6.10155
418.975	4.28281
422.349	0.855621
425.724	5.22369
429.099	0.448021
432.474	2.36977
435.849	8.97821
439.224	9.39822
442.598	1.00596
445.973	3.12578
449.348	2.69259
452.723	4.41031
456.098	5.0796
459.472	3.57036
462.847	1.75842
466.222	1.5739
469.597	0.925758
472.972	3.29515
476.346	5.54367
479.721	5.54428
483.096	10.0322
486.471	7.21404
489.846	6.09855
493.221	0.970856
496.595	8.80147
499.97	11.763
503.345	8.34046
506.72	9.81509
510.095	10.8025
513.469	14.0776
516.844	8.04456
520.219	9.55762
523.594	3.70158
526.969	6.54298
530.343	8.12868
533.718	8.13478
537.093	1.86651
540.468	5.48656
543.843	7.28303
547.218	2.7695
550.592	2.11219
553.967	4.00378
557.342	8.67564
560.717	8.27666
564.092	3.48844
567.466	3.19067
570.841	7.93245
574.216	0.511555
577.591	3.11756
580.966	0.108725
584.341	8.85104
587.715	1.91621
591.09	5.6001
594.465	8.8057
597.84	3.21608
601.215	5.20414
604.59	7.88884
607.964	8.30225
611.339	8.17107
614.714	4.50643
618.089	6.33781
621.464	4.56463
624.838	8.38547
628.213	3.23961
631.588	6.28545
634.963	5.71784
638.338	1.3121
641.712	3.11549
645.087	6.60528
648.462	4.8678
651.837	6.72375
655.212	3.43113
658.587	3.07674
661.961	3.79544
665.336	3.07235
668.711	0.484966
672.086	3.8199
675.461	4.8355
678.835	7.59188
682.21	1.4465
685.585	3.46733
688.96	5.52237
692.335	3.10362
695.71	7.15445
699.084	5.90137
702.459	2.97883
705.834	7.68548
709.209	5.11741
712.584	5.36401
715.958	7.83454
719.333	3.40205
722.708	7.37951
726.083	2.84192
729.458	7.7504
732.832	7.91565
736.207	4.01111
739.582	7.99793
742.957	3.26679
746.332	3.71126
749.707	4.36007
753.081	6.37534
756.456	5.93386
759.831	4.66426
763.206	4.67687
766.581	3.99124
769.956	1.28642
773.33	4.0463
776.705	3.93686
780.08	10.7098
783.455	4.19644
786.83	2.7166
790.204	2.87934
793.579	8.37111
796.954	3.85863
800.329	8.18914
803.704	2.42484
807.078	2.57365
810.453	8.8667
813.828	5.36258
817.203	3.02996
820.578	4.67168
823.953	5.11309
827.327	6.67001
830.702	5.75614
834.077	2.95893
837.452	4.34661
840.827	2.45285
844.201	0.448639
847.576	5.70678
850.951	6.97597
854.326	5.90436
857.701	4.03127
861.076	3.32387
864.45	2.98693
867.825	0.863789
871.2	4.67289
874.575	2.31815
877.95	4.32912
881.324	4.60082
884.699	4.37831
888.074	2.63973
891.449	7.27572
894.824	4.91721
898.198	7.65775
901.573	0.647923
904.948	6.3023
908.323	0.247313
911.698	4.74298
915.073	5.63357
918.447	4.46167
921.822	5.45087
925.197	5.77587
928.572	3.49306
931.947	0.937819
935.322	5.04887
938.696	1.87832
942.071	8.1219
945.446	6.00086
948.821	7.74686
952.196	13.0224
955.57	12.2991
958.945	16.9379
962.32	16.9232
965.695	20.2617
969.07	18.2515
972.444	10.7247
975.819	8.57612
979.194	4.09869
982.569	6.46112
985.944	6.1316
989.318	2.65772
992.693	5.05323
996.068	3.30737
999.443	10.3939
1002.82	6.24691
1006.19	0.599531
1009.57	2.0074
1012.94	8.67575
1016.32	8.39032
1019.69	3.09882
1023.07	0.706695
1026.44	1.85933
1029.82	0.254193
1033.19	5.71079
1036.57	1.67865
1039.94	4.41578
1043.32	3.50794
1046.69	4.60136
1050.07	2.03957
1053.44	5.8159
1056.82	0.798729
1060.19	7.67061
1063.57	0.116948
1066.94	10.3154
1070.31	9.62143
1073.69	6.03443
1077.06	4.13241
1080.44	5.30974
1083.81	10.5667
1087.19	5.79652
1090.56	10.3268
1093.94	8.50531
1097.31	5.4725
1100.69	9.03211
1104.06	5.18067
1107.44	10.9555
1110.81	8.89032
1114.19	7.06752
1117.56	3.40984
1120.94	5.93797
1124.31	4.58209
1127.69	7.23966
1131.06	6.60765
1134.44	2.45967
1137.81	0.504773
1141.18	4.48773
1144.56	4.69794
1147.93	4.78639
1151.31	5.05118
1154.68	3.71038
1158.06	8.4173
1161.43	6.45861
1164.81	4.75673
1168.18	6.08194
1171.56	5.55029
1174.93	5.51889
1178.31	0.245138
1181.68	4.89139
1185.06	0.980203
1188.43	8.1417
1191.81	5.29076
1195.18	3.70592
1198.56	9.3769
1201.93	4.33494
1205.31	4.94614
1208.68	2.806
1212.06	8.27676
1215.43	6.487
1218.81	3.65281
1222.18	3.7052
1225.56	4.89066
1228.93	10.2043
1232.31	6.64921
1235.68	4.3225
1239.06	6.72703
1242.43	4.74686
1245.81	4.13036
1249.18	5.85965
1252.55	5.82992
1255.93	7.5963
1259.3	7.82024
1262.68	5.49138
1266.05	0.7901
1269.43	9.05284
1272.8	2.63553
1276.18	4.80692
1279.55	4.11042
1282.93	2.71567
1286.3	3.96553
