Measurement: Raman, 780 nm, unoriented, Raman Data Processed
Mineral: Spertiniite
Rruff sample: R100193
Ideal chemistry: Cu^2+^(OH)_2_
Locality: Jeffrey mine, Asbestos, Shipton Township, Richmond County, Quebec, Canada
Source: Rob Lavinsky
Description: Blue botryoidal aggregates forming coatings on the rock. Sample is from F. Spertini
Raman shift (cm-1)	intensity
181.243	0
184.136	0.670298
187.029	1.0418
189.921	0.108837
192.814	2.4919
195.707	1.02743
198.6	1.29904
201.492	1.82574
204.385	2.73622
207.278	2.81521
210.17	4.84443
213.063	0.375397
215.956	2.55451
218.848	0.547176
221.741	5.28718
224.634	2.94853
227.526	1.2935
230.419	1.72257
233.312	1.29
236.205	2.87174
239.097	1.6068
241.99	3.60982
244.883	1.71173
247.775	1.80292
250.668	3.43322
253.561	2.16081
256.454	1.62001
259.346	2.97719
262.239	1.88655
265.132	4.5485
268.024	2.85898
270.917	3.16338
273.81	2.62406
276.702	4.13716
279.595	2.50243
282.488	3.4433
285.38	3.07261
288.273	3.57309
291.166	0.778591
294.059	2.02874
296.951	1.42637
299.844	3.01788
302.737	2.47923
305.629	2.06703
308.522	1.64889
311.415	2.3143
314.308	4.07958
317.2	4.13537
320.093	2.35893
322.986	1.82043
325.878	0.598257
328.771	0.038317
331.664	2.19646
334.556	2.96577
337.449	1.46477
340.342	1.32845
343.234	0.458342
346.127	1.62627
349.02	1.99897
351.913	1.52793
354.805	0.82032
357.698	2.17117
360.591	2.08373
363.483	0.917732
366.376	1.51383
369.269	1.6746
372.161	2.0085
375.054	0.026661
377.947	0.33556
380.839	2.70858
383.732	0.298582
386.625	0.151649
389.518	3.03373
392.41	0.784822
395.303	0.125418
398.196	0.299549
401.088	2.23723
403.981	1.33449
406.874	2.50445
409.767	2.36192
412.659	0.356642
415.552	0.332663
418.445	1.53084
421.337	1.22979
424.23	1.84539
427.123	1.79345
430.015	0.531858
432.908	2.02493
435.801	2.51606
438.693	3.18738
441.586	2.97679
444.479	1.55184
447.372	2.61132
450.264	1.77486
453.157	2.50011
456.05	1.83693
458.942	1.99785
461.835	2.02255
464.728	1.81391
467.62	2.3115
470.513	3.67598
473.406	3.41324
476.299	4.12437
479.191	4.99204
482.084	5.83284
484.977	2.75266
487.869	3.53889
490.762	3.98119
493.655	1.47138
496.547	1.23419
499.44	0.034048
502.333	2.44034
505.226	2.22429
508.118	3.29392
511.011	1.4021
513.904	2.29435
516.796	1.95638
519.689	0.603752
522.582	1.64598
525.474	2.17069
528.367	1.78089
531.26	2.33817
534.153	0.905363
537.045	0.976999
539.938	1.86672
542.831	0.21314
545.723	1.58498
548.616	0.884741
551.509	0.637234
554.401	0.986971
557.294	1.93819
560.187	0.42346
563.08	1.48395
565.972	1.34172
568.865	0.978666
571.758	1.12001
574.65	1.9077
577.543	1.88444
580.436	0.987677
583.328	2.12241
586.221	0.585398
589.114	0.707249
592.006	2.43749
594.899	2.99969
597.792	0.718264
600.685	1.88827
603.577	3.5791
606.47	1.02357
609.363	2.36053
612.255	2.73233
615.148	4.04884
618.041	2.42219
620.933	1.29261
623.826	3.15312
626.719	2.96322
629.611	0.713503
632.504	0.278648
635.397	0.277342
638.29	2.33807
641.182	1.94399
644.075	3.42325
646.968	1.48914
649.86	1.89019
652.753	1.64745
655.646	1.0566
658.538	1.11423
661.431	1.45569
664.324	1.20849
667.217	1.38367
670.109	0.920517
673.002	1.39342
675.895	0.972416
678.787	2.54847
681.68	2.21902
684.573	0.131529
687.466	1.22781
690.358	0.118263
693.251	0.886375
696.144	0.918306
699.036	0.504971
701.929	1.81517
704.822	1.06603
707.714	1.66826
710.607	3.08229
713.5	1.51214
716.393	0.853903
719.285	2.0238
722.178	0.096628
725.071	0.356815
727.963	2.21892
730.856	1.93847
733.749	3.47416
736.641	2.21542
739.534	1.63146
742.427	2.02287
745.319	0.89369
748.212	0.420168
751.105	1.21668
753.998	1.74103
756.89	0.818279
759.783	0.297909
762.676	3.26599
765.568	2.79663
768.461	0.915327
771.354	2.57952
774.246	2.57359
777.139	0.951422
780.032	2.55493
782.925	2.46363
785.817	1.38608
788.71	1.24022
791.603	2.05307
794.495	1.36274
797.388	1.78278
800.281	0.685814
803.173	2.76205
806.066	1.27092
808.959	1.13095
811.851	1.91651
814.744	1.60547
817.637	0.808893
820.53	2.13345
823.422	1.59622
826.315	3.09322
829.208	2.28799
832.1	2.73754
834.993	2.1785
837.886	2.62196
840.779	4.52588
843.671	1.13674
846.564	3.80887
849.457	2.62827
852.349	0.830727
855.242	1.1587
858.135	1.71038
861.027	1.11392
863.92	1.81112
866.813	0.228279
869.706	2.43106
872.598	3.02367
875.491	1.88331
878.384	1.21716
881.276	2.70107
884.169	1.46466
887.062	2.03229
889.954	2.53317
892.847	2.31146
895.74	1.30338
898.632	0.817577
901.525	1.53045
904.418	2.80726
907.311	2.37926
910.203	0.5278
913.096	0.050192
915.989	2.35435
918.881	0.073881
921.774	2.18984
924.667	2.56418
927.559	1.03376
930.452	0.218786
933.345	1.8679
936.237	0.468784
939.13	1.95345
942.023	0.046471
944.916	0.845675
947.808	1.0929
950.701	2.21359
953.594	1.48056
956.486	0.679794
959.379	2.7463
962.272	0.91003
965.164	1.85969
968.057	2.42876
970.95	3.00088
973.843	2.28303
976.735	1.75634
979.628	3.38192
982.521	0.904703
985.413	0.597733
988.306	1.92041
991.199	1.73755
994.091	0.519222
996.984	1.59472
999.877	1.72449
1002.77	4.16436
1005.66	0.45154
1008.55	1.53287
1011.45	3.58666
1014.34	1.53185
1017.23	1.762
1020.13	2.07081
1023.02	2.41146
1025.91	1.82328
1028.8	1.27141
1031.7	1.08011
1034.59	3.07595
1037.48	1.43352
1040.38	2.03623
1043.27	2.77205
1046.16	3.07058
1049.05	3.30985
1051.94	2.39974
1054.84	0.716412
1057.73	0.826416
1060.62	1.85887
1063.52	0.285854
1066.41	2.35725
1069.3	1.58228
1072.19	1.69572
1075.09	1.78734
1077.98	0.815319
1080.87	2.60298
1083.77	1.85107
1086.66	3.53381
1089.55	2.3009
1092.44	1.9315
1095.34	0.479639
1098.23	1.02769
1101.12	0.935072
1104.01	1.86663
1106.91	2.21312
1109.8	0.286226
1112.69	1.23654
1115.59	4.6954
1118.48	3.27899
1121.37	0.876654
1124.26	1.22922
1127.16	0.514666
1130.05	2.85951
1132.94	2.47404
1135.83	2.00573
1138.73	1.50835
1141.62	1.64829
1144.51	1.22871
1147.4	0.883799
1150.3	0.200691
1153.19	0.04863
1156.08	1.55249
1158.97	1.96089
1161.87	2.07658
1164.76	1.7659
1167.65	2.26362
1170.55	1.52779
1173.44	1.37654
1176.33	3.03526
1179.22	1.05089
1182.12	1.72355
1185.01	1.67943
1187.9	0.295193
1190.8	3.78668
1193.69	1.34237
1196.58	1.14305
1199.47	2.02377
1202.37	1.73656
1205.26	3.38658
1208.15	2.41476
1211.04	2.76514
1213.94	0.069719
1216.83	2.20365
1219.72	2.46999
1222.62	1.04542
1225.51	0.598942
1228.4	0.026548
1231.29	1.23837
1234.18	0.328171
1237.08	0.423601
1239.97	2.56848
1242.86	1.64261
1245.76	2.54589
1248.65	0.049339
1251.54	1.48792
1254.43	0.011255
1257.33	1.10838
1260.22	3.16224
1263.11	1.82678
1266.01	1.39399
1268.9	0.670977
1271.79	1.89253
1274.68	2.55767
1277.58	2.65201
1280.47	1.27172
1283.36	1.39591
