Measurement: Raman, 514 nm, unoriented, Raman Data Processed
Mineral: Sphalerite
Rruff sample: R050237
Ideal chemistry: Zn^2+^S^2-^
Locality: Picos de Europa, Spain
Source: Marcus Origlieri
Description: Green single crystal
Measured chemistry: Zn_1.00_S_1.00_
Raman shift (cm-1)	intensity
52.866	0
57.065	100.732
61.262	109.78
65.458	17.429
69.651	30.975
73.842	85.167
78.031	436.652
82.218	357.752
86.404	385.322
90.587	527.718
94.768	542.408
98.947	560.777
103.124	678.944
107.3	856.801
111.473	1050.68
115.644	2338.45
119.813	1752.76
123.981	1609.66
128.146	2054.59
132.309	2760.2
136.47	4043.1
140.63	5317.72
144.787	5913.13
148.942	6315.94
153.096	6496.73
157.247	6892.71
161.396	7371.24
165.544	7884.58
169.689	8661.53
173.833	9888.8
177.974	10780.4
182.114	9734.64
186.251	8551.01
190.387	7815.68
194.52	7469.85
198.652	7067.1
202.782	7168.12
206.909	8048.17
211.035	10235.1
215.159	13415
219.281	13858.1
223.4	11327.2
227.518	8684.49
231.634	7594.13
235.748	7119.63
239.86	5306.65
243.97	3056.33
248.079	1763.61
252.185	1297.26
256.289	1105.09
260.391	1272.92
264.492	2164.62
268.59	4350.07
272.687	6852.18
276.781	5810.85
280.874	3682.01
284.964	2575.59
289.053	2249.51
293.14	2464.7
297.225	3264.1
301.308	3319.64
305.389	2528.13
309.468	1951.51
313.545	1294.61
317.62	634.438
321.693	650.596
325.765	1477.27
329.834	2658.64
333.902	3768.05
337.967	5028.89
342.031	9163.75
346.093	22782.7
350.153	55772.4
354.21	45896.8
358.267	24395.8
362.321	10762.3
366.373	8446.42
370.423	8048.06
374.471	8377.05
378.518	8252.02
382.563	7815.24
386.605	7898.42
390.646	8412.29
394.685	9098.19
398.722	9287.88
402.757	8250.56
406.79	7124.46
410.821	6695.48
414.851	7395.99
418.878	8966.95
422.904	8723.33
426.927	8050.09
430.949	6656.22
434.969	5203.68
438.987	4589.45
443.003	4423.51
447.018	4741.84
451.03	4673.41
455.041	2767.21
459.049	827.224
463.056	91.442
467.061	159.283
471.064	241.436
475.065	211.382
479.064	90.008
483.062	82.087
487.057	61.532
491.051	37.231
495.043	22.058
499.032	0.995
503.02	100.954
507.007	205.875
510.991	412.733
514.973	632.491
518.954	798.139
522.933	623.666
526.91	355.048
530.885	134.271
534.858	19.272
538.829	40.236
542.799	96.527
546.766	83.989
550.732	16.549
554.696	38.054
558.658	37.53
562.618	138.415
566.576	244.868
570.533	294
574.488	454.795
578.44	534.242
582.391	725.329
586.341	856.152
590.288	1048.66
594.233	1392.68
598.177	1745.33
602.119	2535.59
606.059	3479.84
609.997	4199.63
613.933	4700
617.868	4553.53
621.801	2846.37
625.731	2096.61
629.66	2238.45
633.588	3447.81
637.513	5004.24
641.437	4952.22
645.358	3107.92
649.278	1630.83
653.196	1663.84
657.113	2324.23
661.027	3989.04
664.94	7050.23
668.851	10645.2
672.76	9322.92
676.667	7213.74
680.572	5934.51
684.476	5311.43
688.378	4877.15
692.278	4472.4
696.176	3509.46
700.072	2268.49
703.967	1252
707.86	850.278
711.751	593.561
715.64	531.34
719.527	463.852
723.413	410.297
727.297	319.046
731.179	235.366
735.059	189.218
738.937	168.721
742.814	146.802
746.689	153.534
750.562	65.977
754.433	91.436
758.303	61.593
762.17	54.142
766.036	13.247
769.901	5.841
773.763	58.084
777.624	40.879
781.482	25.35
785.339	32.917
789.195	20.396
793.048	50.872
796.9	36.674
800.75	23.721
804.598	21.047
808.445	2.951
812.289	22.452
816.132	17.957
819.973	49.163
823.813	47.077
827.65	39.601
831.486	41.375
835.32	27.697
839.152	24.973
842.983	43.62
846.812	27.092
850.639	26.27
854.464	54.516
858.288	30.987
862.11	23.381
865.93	61.46
869.748	22.54
873.564	31.17
877.379	37.622
881.192	87.166
885.004	64.947
888.813	47.75
892.621	83.337
896.427	42.524
900.232	61.739
904.034	99.08
907.835	144.004
911.634	96.104
915.432	134.834
919.227	115.716
923.021	92.047
926.813	114.257
930.604	158.751
934.393	101.336
938.18	166.684
941.965	138.961
945.749	70.467
949.53	54.299
953.311	55.754
957.089	54.211
960.866	104.319
964.641	42.948
968.414	37.095
972.185	21.81
975.955	34.833
979.723	96.965
983.49	85.018
987.254	40.693
991.017	90.135
994.779	86.908
998.538	89.506
1002.3	128.395
1006.05	139.75
1009.81	99.506
1013.56	144.417
1017.31	76.374
1021.06	137.422
1024.81	137.55
1028.55	80.683
1032.3	225.21
1036.04	225.51
1039.78	164.907
1043.52	176.422
1047.26	101.106
1050.99	98.233
1054.73	120.054
1058.46	158.46
1062.19	130.781
1065.92	119.043
1069.65	113.493
1073.37	35.589
1077.1	142.725
1080.82	63.299
1084.54	148.868
1088.26	118.399
1091.97	172.996
1095.69	75.48
1099.4	48.986
1103.12	77.312
1106.83	16.292
1110.54	50.295
1114.24	38.362
1117.95	65.014
1121.65	124.984
1125.35	118.802
1129.06	11.46
1132.75	10.389
1136.45	98.904
1140.15	1.945
1143.84	56.627
1147.53	3.303
1151.22	13.397
1154.91	1.008
1158.6	22.087
1162.28	67.209
1165.97	36.437
1169.65	112.38
1173.33	14.854
1177.01	93.908
1180.69	132.327
1184.36	93.691
1188.04	35.821
1191.71	72.149
1195.38	58.921
1199.05	79.046
1202.71	179.781
1206.38	121.453
1210.04	106.753
1213.71	31.669
1217.37	81.102
1221.03	86.819
1224.68	83.598
1228.34	32.398
1231.99	138.679
1235.65	93.575
1239.3	50.188
1242.95	22.227
1246.59	145.836
1250.24	77.59
1253.88	124.123
1257.53	10.807
1261.17	46.916
1264.81	67.83
1268.45	50.331
1272.08	88.269
1275.72	54.252
1279.35	46.288
1282.98	46.711
1286.61	78.474
1290.24	30.051
1293.87	34.084
1297.49	15.475
1301.11	20.33
1304.73	47.573
1308.36	42.117
1311.97	80.056
1315.59	92.629
1319.2	20.045
1322.82	34.247
1326.43	121.199
1330.04	47.254
1333.65	69.744
1337.26	57.273
1340.86	163.583
1344.47	28.394
1348.07	123.265
1351.67	169.908
1355.27	126.06
1358.87	162.961
1362.46	96.449
1366.06	87.363
1369.65	193.997
1373.24	195.807
1376.83	204.873
1380.42	125.151
1384	127.062
1387.59	128.948
1391.17	210.428
1394.75	184.348
1398.33	81.233
1401.91	174.536
1405.49	91.5
1409.06	83.265
1412.64	133.604
1416.21	82.589
1419.78	419.9
1423.35	349.581
1426.91	108.281
1430.48	103.641
1434.05	164.216
1437.61	207.781
1441.17	121.808
1444.73	112.527
1448.29	148.092
1451.84	236.382
1455.4	235.588
1458.95	140.965
1462.5	156.597
1466.05	110.714
1469.6	157.623
1473.15	205.757
1476.69	75.293
1480.24	113.919
1483.78	216.286
1487.32	142.615
1490.86	100.83
1494.39	151.494
1497.93	171.972
1501.46	120.585
1505	3.606
1508.53	34.754
1512.06	117.656
1515.59	27.491
1519.11	13.58
1522.64	0
