Measurement: Raman, 780 nm, unoriented, Raman Data RAW
Mineral: Sphalerite
Rruff sample: R050140
Ideal chemistry: Zn^2+^S^2-^
Locality: Big Four mine, Summit County, Colorado, USA
Source: Dave Bunk Minerals
Description: Group of dark green tetrahedra
Measured chemistry: Zn_1.00_S_1.00_
Raman shift (cm-1)	intensity
93.0853	0
96.4601	92871.5
99.8349	97779.5
103.21	97223.9
106.585	98018.3
109.959	99221.7
113.334	100202
116.709	101332
120.084	102051
123.459	102617
126.833	103165
130.208	104239
133.583	105193
136.958	106514
140.333	107509
143.708	108627
147.082	109605
150.457	110461
153.832	111359
157.207	112067
160.582	113026
163.956	113690
167.331	114700
170.706	115415
174.081	116784
177.456	117843
180.831	118242
184.205	118532
187.58	118957
190.955	120079
194.33	120446
197.705	121120
201.079	122078
204.454	123009
207.829	124101
211.204	125051
214.579	126178
217.953	127446
221.328	127512
224.703	128504
228.078	128601
231.453	129041
234.828	130208
238.202	130993
241.577	131354
244.952	131670
248.327	132278
251.702	132737
255.077	133764
258.451	134361
261.826	135274
265.201	136212
268.576	136903
271.95	137846
275.325	138529
278.7	139528
282.075	140108
285.45	141260
288.825	142185
292.199	143140
295.574	143942
298.949	144752
302.324	145448
305.699	146105
309.074	146994
312.448	147912
315.823	148864
319.198	150324
322.573	151309
325.948	151944
329.322	152863
332.697	153741
336.072	154917
339.447	156046
342.822	156904
346.197	158038
349.571	159084
352.946	160115
356.321	160756
359.696	162229
363.071	162972
366.445	164252
369.82	164902
373.195	166356
376.57	167221
379.945	168109
383.32	169050
386.694	170156
390.069	171077
393.444	172125
396.819	173492
400.194	174544
403.568	175303
406.943	176406
410.318	177167
413.693	178421
417.068	179414
420.442	180782
423.817	182167
427.192	183062
430.567	183914
433.942	185090
437.317	186059
440.691	186943
444.066	188070
447.441	189055
450.816	190449
454.191	191261
457.565	191865
460.94	192999
464.315	194490
467.69	195335
471.065	196883
474.44	197338
477.814	198426
481.189	199675
484.564	200262
487.939	201474
491.314	202260
494.688	203159
498.063	204183
501.438	205357
504.813	206079
508.188	207394
511.562	208576
514.937	209837
518.312	211068
521.687	211786
525.062	212326
528.437	213399
531.811	214530
535.186	215412
538.561	216175
541.936	217257
545.311	218536
548.686	219345
552.06	220868
555.435	222202
558.81	223408
562.185	224612
565.56	225211
568.934	226334
572.309	228071
575.684	229391
579.059	230272
582.434	231587
585.808	232665
589.183	233915
592.558	235213
595.933	236365
599.308	237455
602.683	238784
606.057	240344
609.432	241579
612.807	242903
616.182	244133
619.557	244817
622.932	246267
626.306	247826
629.681	249044
633.056	250331
636.431	252026
639.806	252834
643.18	253865
646.555	255062
649.93	256462
653.305	257394
656.68	258937
660.054	260455
663.429	261608
666.804	262924
670.179	264601
673.554	265387
676.928	266212
680.303	266978
683.678	268520
687.053	269900
690.428	271529
693.803	272187
697.177	273594
700.552	274692
703.927	276052
707.302	277047
710.677	278442
714.052	279825
717.426	280676
720.801	281840
724.176	282784
727.551	283901
730.926	285136
734.3	286716
737.675	287542
741.05	288497
744.425	289273
747.8	290520
751.174	292097
754.549	292476
757.924	293554
761.299	294922
764.674	296890
768.049	297594
771.423	297796
774.798	300195
778.173	300596
781.548	302218
784.923	304018
788.298	304925
791.672	306001
795.047	306898
798.422	308876
801.797	309444
805.172	310243
808.546	312825
811.921	314420
815.296	315316
818.671	316531
822.046	317512
825.42	318126
828.795	319502
832.17	321334
835.545	322164
838.92	323725
842.294	324896
845.669	326022
849.044	327463
852.419	328207
855.794	329262
859.169	330262
862.543	331946
865.918	333738
869.293	334407
872.668	335307
876.043	336178
879.418	338091
882.792	339076
886.167	340210
889.542	340765
892.917	342050
896.292	343583
899.666	344381
903.041	345926
906.416	346894
909.791	348356
913.166	349292
916.54	350726
919.915	351890
923.29	353013
926.665	354002
930.04	355617
933.415	356548
936.789	357636
940.164	358820
943.539	360095
946.914	361638
950.289	362622
953.663	364080
957.038	365499
960.413	366787
963.788	368500
967.163	368800
970.538	369749
973.912	370896
977.287	372282
980.662	373562
984.037	375287
987.412	376360
990.786	377941
994.161	378676
997.536	380432
1000.91	381921
1004.29	383331
1007.66	383396
1011.03	386390
1014.41	387106
1017.78	388213
1021.16	390129
1024.54	391745
1027.91	393286
1031.28	394358
1034.66	395476
1038.03	397506
1041.41	398028
1044.78	400188
1048.16	400711
1051.53	402739
1054.91	403963
1058.28	406102
1061.66	407232
1065.03	408338
1068.41	409435
1071.78	410482
1075.16	411135
1078.53	412023
1081.91	413450
1085.28	415113
1088.66	416481
1092.03	417475
1095.41	417882
1098.78	419618
1102.15	419896
1105.53	421773
1108.9	422421
1112.28	424193
1115.65	425343
1119.03	426236
1122.4	428144
1125.78	429421
1129.15	430611
1132.53	431597
1135.9	433376
1139.28	434018
1142.65	436354
1146.03	437256
1149.4	438645
1152.78	440287
1156.15	441658
1159.53	443231
1162.9	445449
1166.28	446363
1169.65	448040
1173.03	449467
1176.4	451149
1179.78	452446
1183.15	453760
1186.53	455284
1189.9	456820
1193.28	457791
1196.65	458474
1200.03	460129
1203.4	461800
1206.78	462811
1210.15	463974
1213.52	465553
1216.9	466547
1220.27	466008
1223.65	466693
1227.02	467853
1230.4	470809
1233.77	472583
1237.15	473657
1240.52	474714
1243.9	475681
1247.27	476976
1250.65	477839
1254.02	479274
1257.4	480449
1260.77	481804
1264.15	483533
1267.52	485615
1270.9	486973
1274.27	490140
1277.65	490686
1281.02	492969
1284.4	495026
