Measurement: Raman, 780 nm, unoriented, Raman Data Processed
Mineral: Spinel
Rruff sample: R110101
Ideal chemistry: MgAl_2_O_4_
Locality: Synthetic
Source: Gemological Institute of America
Description: A blue, cut (3.76ct) gemstone, grown by flame fusion.
Raman shift (cm-1)	intensity
129.691	349343
132.583	350042
135.476	351365
138.369	351957
141.262	353026
144.154	353731
147.047	354643
149.94	355423
152.832	356486
155.725	356984
158.618	357506
161.51	358028
164.403	358214
167.296	358662
170.189	359273
173.081	359595
175.974	360009
178.867	360345
181.759	360648
184.652	360617
187.545	360765
190.437	361292
193.33	362138
196.223	362496
199.115	362601
202.008	362722
204.901	363393
207.794	363624
210.686	363858
213.579	364063
216.472	364806
219.364	365488
222.257	365480
225.15	365480
228.042	365811
230.935	365838
233.828	366272
236.721	366776
239.613	367004
242.506	366985
245.399	367008
248.291	367454
251.184	367478
254.077	367620
256.969	367514
259.862	368788
262.755	369050
265.648	369195
268.54	370099
271.433	370892
274.326	371303
277.218	372419
280.111	373214
283.004	373514
285.897	373340
288.789	374432
291.682	375364
294.575	375475
297.467	375997
300.36	376096
303.253	376103
306.145	375974
309.038	376104
311.931	376651
314.824	377619
317.716	377571
320.609	377602
323.502	377907
326.394	377845
329.287	378517
332.18	378764
335.072	379605
337.965	380251
340.858	380375
343.75	380720
346.643	381136
349.536	382015
352.429	381797
355.321	382616
358.214	383197
361.107	383334
364	383258
366.892	383462
369.785	384818
372.678	384615
375.57	384604
378.463	384177
381.356	384883
384.248	385221
387.141	385052
390.034	385332
392.926	385154
395.819	385288
398.712	386040
401.605	386140
404.497	386280
407.39	386921
410.283	386618
413.175	387164
416.068	387241
418.961	387056
421.853	387786
424.746	387918
427.639	387809
430.532	388680
433.424	388442
436.317	388622
439.21	389107
442.102	388901
444.995	389406
447.888	389991
450.781	389852
453.673	389472
456.566	389506
459.459	390086
462.351	390676
465.244	390792
468.137	390254
471.029	390242
473.922	389822
476.815	389695
479.707	389012
482.6	389119
485.493	388941
488.386	388654
491.278	388672
494.171	388500
497.064	388705
499.956	388454
502.849	388341
505.742	388370
508.635	387972
511.527	388302
514.42	388168
517.313	387910
520.205	387322
523.098	387321
525.991	386612
528.883	386768
531.776	387010
534.669	387247
537.562	387109
540.454	386747
543.347	386800
546.24	386984
549.132	386805
552.025	387410
554.918	387223
557.81	388394
560.703	387322
563.596	387892
566.489	388009
569.381	388493
572.274	388045
575.167	388302
578.059	388632
580.952	389034
583.845	388864
586.737	389361
589.63	389318
592.523	390378
595.415	390567
598.308	391041
601.201	390834
604.094	391242
606.986	391196
609.879	391778
612.772	391921
615.664	392585
618.557	392020
621.45	392690
624.342	393725
627.235	393866
630.128	394453
633.021	394638
635.913	394420
638.806	395040
641.699	395504
644.591	394807
647.484	395897
650.377	396310
653.269	396591
656.162	395464
659.055	396571
661.948	396101
664.84	396039
667.733	397181
670.626	396401
673.518	397263
676.411	397750
679.304	397721
682.197	397260
685.089	397832
687.982	398532
690.875	397316
693.767	397618
696.66	397507
699.553	397482
702.445	398261
705.338	399023
708.231	399569
711.124	399663
714.016	400164
716.909	400395
719.802	401844
722.694	401718
725.587	401844
728.48	402292
731.372	402831
734.265	403208
737.158	403571
740.051	403070
742.943	403755
745.836	403806
748.729	404383
751.621	404058
754.514	404206
757.407	404304
760.299	404471
763.192	405057
766.085	404593
768.977	404250
771.87	405145
774.763	405534
777.656	406147
780.548	406482
783.441	406817
786.334	407035
789.226	407326
792.119	407204
795.012	407715
797.904	407960
800.797	407662
803.69	407551
806.583	409388
809.475	408800
812.368	408701
815.261	408991
818.153	409888
821.046	410392
823.939	410526
826.832	410439
829.724	410414
832.617	411241
835.51	411285
838.402	411791
841.295	412252
844.188	411260
847.08	411866
849.973	411765
852.866	412500
855.759	412073
858.651	413346
861.544	412789
864.437	413380
867.329	413118
870.222	413449
873.115	413556
876.007	413973
878.9	413771
881.793	413951
884.686	413614
887.578	414179
890.471	413592
893.364	414652
896.256	413795
899.149	414110
902.042	414366
904.934	414901
907.827	416461
910.72	416100
913.612	417330
916.505	416860
919.398	417583
922.291	417426
925.183	417294
928.076	418441
930.969	418441
933.861	419218
936.754	419148
939.647	419662
942.539	419730
945.432	420131
948.325	420952
951.218	421604
954.11	422206
957.003	422307
959.896	423073
962.788	422296
965.681	422384
968.574	423171
971.466	423480
974.359	423906
977.252	424481
980.145	425139
983.037	425139
985.93	426260
988.823	426561
991.715	426605
994.608	427581
997.501	428187
1000.39	428264
1003.29	428548
1006.18	429076
1009.07	430411
1011.96	430733
1014.86	430753
1017.75	431142
1020.64	431642
1023.53	432150
1026.43	432620
1029.32	433200
1032.21	433248
1035.11	434754
1038	435318
1040.89	434492
1043.78	434472
1046.68	434198
1049.57	434567
1052.46	434567
1055.36	435461
1058.25	435222
1061.14	436438
1064.03	437088
1066.93	437320
1069.82	437614
1072.71	438049
1075.6	438313
1078.5	437926
1081.39	438493
1084.28	438431
1087.17	438648
1090.07	439179
1092.96	439529
1095.85	438973
1098.74	438900
1101.64	438905
1104.53	439153
1107.42	439721
1110.32	439538
1113.21	439203
1116.1	439073
1118.99	438905
1121.89	438692
1124.78	440080
1127.67	440231
1130.57	441678
1133.46	442182
1136.35	443105
1139.24	443300
1142.14	443982
1145.03	444287
1147.92	444966
1150.81	445014
1153.71	444989
1156.6	444973
1159.49	445734
1162.38	446902
1165.28	447132
1168.17	448205
1171.06	448490
1173.96	449216
1176.85	448512
1179.74	449747
1182.63	449697
1185.53	449676
1188.42	450426
1191.31	451559
1194.2	451447
1197.1	451715
1199.99	451430
1202.88	452464
1205.78	452541
1208.67	451855
1211.56	452565
1214.45	453481
1217.35	454437
1220.24	453652
1223.13	453917
1226.02	453498
1228.92	454261
1231.81	454470
1234.7	455099
1237.6	454593
1240.49	454526
1243.38	455330
1246.27	455350
1249.17	455682
1252.06	456598
1254.95	456175
1257.84	457790
1260.74	459094
1263.63	460228
1266.52	461509
1269.41	462492
1272.31	462790
1275.2	462843
1278.09	465579
1280.98	465073
1283.88	467715
