Measurement: Raman, 532 nm, unoriented, Raman Data Processed
Mineral: Spinel
Rruff sample: X080013
Ideal chemistry: MgAl_2_O_4_
Locality: Synthetic
Source: Gemological Institute of America
Description: Faceted red gemstone, 4.40 ct
Raman shift (cm-1)	intensity
140.666	0
143.559	37.5107
146.451	32.3726
149.344	23.499
152.237	38.6352
155.129	21.7529
158.022	38.4531
160.915	13.1206
163.807	10.6851
166.7	34.877
169.593	39.0117
172.486	24.5801
175.378	44.8862
178.271	42.54
181.164	31.1362
184.056	19.499
186.949	39.3691
189.842	7.89941
192.734	13.1699
195.627	2.5044
198.52	19.5439
201.412	10.23
204.305	1.78857
207.198	31.8296
210.091	17.0503
212.983	28.0986
215.876	39.6943
218.769	66.8096
221.661	94.375
224.554	96.4106
227.447	92.8657
230.339	63.7583
233.232	67.7602
236.125	105.92
239.018	114.265
241.91	64.7212
244.803	92.7593
247.696	92.2207
250.588	77.2842
253.481	97.8115
256.374	92.9028
259.267	68.6606
262.159	65.2715
265.052	79.1484
267.945	71.397
270.837	69.0039
273.73	67.5991
276.623	52.4512
279.515	52.7241
282.408	80.0493
285.301	86.3369
288.193	83.5415
291.086	115.247
293.979	100.918
296.872	85.9243
299.764	83.4707
302.657	79.3652
305.55	82.1269
308.442	109.42
311.335	91.2847
314.228	60.8184
317.12	33.0601
320.013	20.4727
322.906	6.08398
325.799	2.1792
328.691	11.7344
331.584	19.2183
334.477	11.2256
337.369	10.085
340.262	6.48731
343.155	8.36084
346.048	23.9043
348.94	10.2993
351.833	47.2978
354.726	45.7119
357.618	52.332
360.511	49.4917
363.404	63.0664
366.296	43.9092
369.189	55.5508
372.082	63.5537
374.974	93.5537
377.867	104.761
380.76	100.689
383.653	135.209
386.545	184.25
389.438	191.512
392.331	205.707
395.223	255.18
398.116	268.325
401.009	309.032
403.901	339.143
406.794	353.991
409.687	350.916
412.58	310.128
415.472	254.806
418.365	204.499
421.258	147.477
424.15	128.434
427.043	89.4282
429.936	69.895
432.829	37.2192
435.721	33.7246
438.614	21.3745
441.507	22.645
444.399	21.1436
447.292	18.6274
450.185	7.1333
453.077	17.2285
455.97	7.47949
458.863	7.82861
461.755	3.34082
464.648	6.17676
467.541	6.27295
470.434	26.4165
473.326	2.85986
476.219	3.9165
479.112	9.92383
482.004	6.43115
484.897	14.9155
487.79	27.917
490.683	21.8061
493.575	45.7334
496.468	16.8814
499.361	27.5801
502.253	33.4238
505.146	45.2578
508.039	45.9863
510.931	25.8125
513.824	14.0405
516.717	23.6104
519.61	13.27
522.502	22.813
525.395	32.8198
528.288	32.9087
531.18	26.813
534.073	18.4966
536.966	19.6543
539.859	33.5508
542.751	52.9072
545.644	27.2803
548.537	35.6572
551.429	31.4414
554.322	14.2305
557.215	20.1343
560.107	39.3862
563	30.7476
565.893	26.2373
568.785	34.8447
571.678	26.1133
574.571	0.316895
577.464	10.9253
580.356	28.9028
583.249	50.9102
586.142	55.8926
589.034	21.1314
591.927	26.8237
594.82	43.6196
597.712	37.9512
600.605	14.9902
603.498	30.1001
606.39	42.8027
609.283	31.9751
612.176	57.0117
615.069	39.3989
617.961	16.5869
620.854	5.00195
623.747	3.71777
626.639	9.10645
629.532	14.604
632.425	13.4883
635.317	16.8125
638.21	42.9941
641.103	9.24219
643.996	42.4917
646.888	43.3887
649.781	53.373
652.674	88.6294
655.566	101.754
658.459	140.95
661.352	173.45
664.245	164.699
667.137	167.402
670.03	141.887
672.923	132.82
675.815	113.218
678.708	107.859
681.601	91.3979
684.493	86.2305
687.386	53.2451
690.279	41.252
693.172	31.6606
696.064	20.6875
698.957	4.17676
701.85	2.00879
704.742	7.11963
707.635	15.4893
710.528	12.0039
713.42	16.5532
716.313	30.4038
719.206	27.8232
722.098	38.4477
724.991	31.6074
727.884	24.6318
730.777	7.49463
733.669	23.3442
736.562	14.3159
739.455	27.9629
742.347	30.148
745.24	30.9839
748.133	39.0664
751.025	21.8784
753.918	58.061
756.811	92.8184
759.704	133.727
762.596	138.187
765.489	165.987
768.382	170.242
771.274	125.403
774.167	100.478
777.06	80.7339
779.952	45.3364
782.845	40.4346
785.738	9.45264
788.631	6.08008
791.523	7.56494
794.416	29.7788
797.309	18.9443
800.201	33.0786
803.094	25.4414
805.987	34.6548
808.88	41.3418
811.772	32.8096
814.665	34.8857
817.558	42.6191
820.45	45.2642
823.343	25.9541
826.236	21.3428
829.128	4.48682
832.021	6.15088
834.914	4.06836
837.807	16.3257
840.699	0.922363
843.592	29.2983
846.485	17.1606
849.377	18.7192
852.27	44.1113
855.163	29.9175
858.055	44.6157
860.948	70.5464
863.841	62.2881
866.734	55.353
869.626	50.6753
872.519	47.9736
875.412	57.6675
878.304	56.4692
881.197	65.8135
884.09	55.9199
886.982	23.5561
889.875	24.2432
892.768	40.4111
895.66	13.3057
898.553	29.9482
901.446	42.2988
904.339	59.874
907.231	81.0879
910.124	87.5947
913.017	66.0547
915.909	92.3096
918.802	86.1582
921.695	114.838
924.587	145.981
927.48	140.665
930.373	93.542
933.266	49.8486
936.158	30.2715
939.051	11.8213
941.944	6.99902
944.836	14.3291
947.729	2.63965
950.622	16.4785
953.514	19.9814
956.407	17.3604
959.3	1.82812
962.193	44.7969
965.085	8.9873
967.978	3.35059
970.871	8.67871
973.763	21.7891
976.656	22.124
979.549	51.6211
982.442	69.6494
985.334	57.7334
988.227	55.7871
991.12	36.8525
994.012	24.7549
996.905	71.1436
999.798	65.5752
1002.69	49.7002
1005.58	43.3496
1008.48	54.0889
1011.37	53.2568
1014.26	35.5664
1017.15	6.03418
1020.05	33.8857
1022.94	54.0576
1025.83	63.9492
1028.72	17.6787
1031.62	0.749023
1034.51	7.74512
1037.4	25.3623
1040.3	3.08106
1043.19	32.5088
1046.08	73.5947
1048.97	25.3877
1051.87	12.7734
1054.76	34.5293
1057.65	66.0752
1060.54	38.8496
1063.44	55.4834
1066.33	53.2998
1069.22	38.8877
1072.12	63.8057
1075.01	58.4082
1077.9	58.5898
1080.79	59.1562
1083.69	64.3057
1086.58	13.0654
1089.47	26.8877
1092.36	32.8975
1095.26	21.5312
1098.15	85.3633
1101.04	103.688
1103.93	85.7334
1106.83	76.1543
1109.72	48.7022
1112.61	59.7461
1115.51	43.1006
1118.4	60.6738
1121.29	67.5137
1124.18	79.7978
1127.08	61.1318
1129.97	100.353
1132.86	144.268
1135.76	115.673
1138.65	124.667
1141.54	88.4121
1144.43	101.228
1147.33	103.274
1150.22	99.75
1153.11	134.11
1156	120.906
1158.9	67.3984
1161.79	66.4238
1164.68	95.335
1167.57	102.673
1170.47	37.5244
1173.36	63.9395
1176.25	55.8438
1179.14	63.6826
1182.04	67.3535
1184.93	29.5234
1187.82	10.752
1190.72	11.916
1193.61	13.4238
1196.5	18.5625
1199.39	21.5303
1202.29	33.792
1205.18	7.76953
1208.07	34.376
1210.96	34.8291
1213.86	27.3262
1216.75	26.0439
1219.64	58.1201
1222.54	84.6582
1225.43	109.65
1228.32	74.29
1231.21	31.2422
1234.11	85.1172
1237	89.8809
1239.89	63.6406
1242.79	78.1406
1245.68	71.0742
1248.57	81.6816
1251.46	88.1875
1254.36	61.1836
1257.25	52.7871
1260.14	25.7891
1263.03	109.184
1265.93	30.9121
1268.82	40.5332
