Measurement: Raman, 532 nm, unoriented, Raman Data Processed
Mineral: Spinel
Rruff sample: R070013
Ideal chemistry: MgAl_2_O_4_
Locality: Bo Phloi, Kanchoutabori Province, Thailand
Source: Michael Scott
Description: Black glassy fragment with conchoidal fracture
Measured chemistry: (Mg_0.69_Fe^2+^_0.31_)_Σ=1_(Al_1.90_Fe^3+^_0.10_)_Σ=2_O_4_ ; trace of Mn, Ti and Cr
Raman shift (cm-1)	intensity
143.431	0
146.806	51.7859
150.181	80.9255
153.556	92.9592
156.931	86.2987
160.305	55.3489
163.68	88.2323
167.055	69.9985
170.43	117.332
173.805	141.418
177.179	115.108
180.554	109.835
183.929	123.293
187.304	151.92
190.679	126.548
194.054	113.901
197.428	98.4213
200.803	116.871
204.178	90.821
207.553	78.8779
210.928	80.3746
214.302	86.5096
217.677	25.28
221.052	47.0243
224.427	25.3507
227.802	33.3458
231.177	42.2199
234.551	15.6653
237.926	14.2539
241.301	29.0902
244.676	6.92322
248.051	3.71082
251.425	37.0184
254.8	20.715
258.175	6.50207
261.55	9.4541
264.925	3.33276
268.3	4.24841
271.674	8.54407
275.049	2.79675
278.424	19.9865
281.799	9.38367
285.174	27.097
288.548	44.9784
291.923	36.0575
295.298	54.0065
298.673	23.0767
302.048	57.3527
305.423	75.5264
308.797	50.9707
312.172	30.9979
315.547	45.0963
318.922	62.4707
322.297	55.9697
325.671	76.0283
329.046	83.3829
332.421	84.0546
335.796	117.83
339.171	91.6627
342.546	90.3108
345.92	71.3042
349.295	75.6028
352.67	79.0132
356.045	43.5476
359.42	73.8994
362.794	50.4435
366.169	62.3391
369.544	35.9156
372.919	23.0797
376.294	53.5673
379.668	46.1768
383.043	27.7609
386.418	27.318
389.793	52.4815
393.168	82.0067
396.543	68.1995
399.917	57.4866
403.292	67.6381
406.667	74.5853
410.042	96.5377
413.417	43.2781
416.791	21.0938
420.166	28.488
423.541	3.72595
426.916	27.5663
430.291	21.302
433.666	46.4647
437.04	19.0874
440.415	7.71826
443.79	10.4066
447.165	3.14014
450.54	9.54956
453.914	22.882
457.289	2.75403
460.664	13.5914
464.039	24.3168
467.414	9.33472
470.789	6.7229
474.163	15.145
477.538	13.3221
480.913	1.48401
484.288	18.4747
487.663	9.94592
491.038	7.98523
494.412	32.0915
497.787	54.5061
501.162	48.7981
504.537	45.9534
507.912	92.2347
511.286	126.973
514.661	181.204
518.036	200.291
521.411	266.338
524.786	262.849
528.16	321.447
531.535	341.005
534.91	350.427
538.285	311.688
541.66	304.566
545.034	307.13
548.409	283.814
551.784	289.168
555.159	252.154
558.534	238.18
561.909	180.384
565.283	149.525
568.658	165.955
572.033	103.636
575.408	126.734
578.783	74.6272
582.158	89.2502
585.532	81.5944
588.907	86.2134
592.282	63.8516
595.657	66.592
599.032	25.9404
602.407	32.4087
605.781	23.5977
609.156	20.3567
612.531	10.3728
615.906	30.2214
619.281	24.7942
622.655	58.7552
626.03	31.043
629.405	52.2131
632.78	75.4569
636.155	59.2795
639.529	83.2581
642.904	73.7847
646.279	98.4575
649.654	134.176
653.029	146.368
656.404	119.855
659.778	85.4598
663.153	61.7614
666.528	41.783
669.903	7.48267
673.278	1.9823
676.653	8.21985
680.027	34.3202
683.402	9.6554
686.777	54.6001
690.152	49.7164
693.527	119.198
696.901	182.037
700.276	163.994
703.651	220.866
707.026	231.882
710.401	216.299
713.775	224.348
717.15	248.391
720.525	270.872
723.9	321.517
727.275	336.304
730.649	419.619
734.024	461.077
737.399	581.49
740.774	629.282
744.149	663.701
747.524	695.412
750.898	705.799
754.273	696.494
757.648	664.548
761.023	599.754
764.398	544.534
767.773	487.145
771.147	417.351
774.522	394.995
777.897	300.65
781.272	280.385
784.647	256.567
788.021	211.546
791.396	191.045
794.771	161.565
798.146	137.911
801.521	150.509
804.895	80.3868
808.27	99.979
811.645	80.7446
815.02	67.8119
818.395	84.0907
821.77	49.0157
825.144	53.1285
828.519	47.821
831.894	21.2971
835.269	22.1987
838.644	1.87524
842.019	29.843
845.393	15.0579
848.768	23.5602
852.143	30.6129
855.518	13.8816
858.893	6.53516
862.267	38.1018
865.642	9.65735
869.017	4.48291
872.392	3.28662
875.767	32.8112
879.141	27.2629
882.516	36.2159
885.891	51.2399
889.266	56.0277
892.641	54.3566
896.016	44.4341
899.39	63.5891
902.765	31.5979
906.14	38.1302
909.515	43.0374
912.89	63.1311
916.264	39.2372
919.639	11.4691
923.014	31.9629
926.389	25.3464
929.764	51.8545
933.139	76.4744
936.513	46.3618
939.888	35.2017
943.263	24.8132
946.638	47.7792
950.013	0.545776
953.388	43.177
956.762	8.80029
960.137	31.7915
963.512	17.0013
966.887	16.0649
970.262	20.1969
973.636	21.0126
977.011	20.7098
980.386	28.9229
983.761	36.2419
987.136	4.82776
990.51	23.9987
993.885	17.4731
997.26	50.5676
1000.63	3.15442
1004.01	8.92285
1007.38	19.1055
1010.76	14.9292
1014.13	47.9465
1017.51	35.0782
1020.88	3.18933
1024.26	11.1985
1027.63	10.2258
1031.01	31.2626
1034.38	7.81665
1037.76	6.67944
1041.13	13.5341
1044.51	34.7628
1047.88	19.8452
1051.26	35.1881
1054.63	30.9526
1058.01	15.4027
1061.38	42.2742
1064.76	25.0535
1068.13	33.1156
1071.51	44.5299
1074.88	16.3485
1078.26	46.3971
1081.63	7.12415
1085.01	32.0922
1088.38	41.4166
1091.76	44.6149
1095.13	43.3386
1098.51	25.3402
1101.88	25.7393
1105.25	21.1434
1108.63	7.5575
1112	25.0983
1115.38	35.412
1118.75	16.9719
1122.13	41.3651
1125.5	9.1991
1128.88	29.594
1132.25	23.605
1135.63	11.8132
1139	18.1645
1142.38	12.087
1145.75	14.014
1149.13	11.0785
1152.5	9.4292
1155.88	39.7733
1159.25	19.0254
1162.63	10.282
1166	37.7864
1169.38	24.1191
1172.75	57.3364
1176.12	21.0135
1179.5	6.82544
1182.88	27.2389
1186.25	50.4535
1189.62	41.1379
1193	19.5151
1196.37	14.5972
1199.75	24.5306
1203.12	52.2786
1206.5	15.308
1209.87	43.0452
1213.25	32.5261
1216.62	46.0851
1220	9.93933
1223.37	3.33606
1226.75	21.37
1230.12	24.161
1233.5	29.2395
1236.87	29.215
1240.25	11.7638
1243.62	1.41248
1247	25.7461
1250.37	20.0376
1253.75	50.248
1257.12	21.3107
1260.5	29.4376
1263.87	14.868
1267.24	11.1102
1270.62	28.9529
1273.99	47.7699
1277.37	7.22278
1280.74	21.4305
1284.12	11.8563
1287.49	14.0635
1290.87	35.5353
1294.24	54.5005
1297.62	53.6378
1300.99	12.1837
1304.37	17.4606
1307.74	20.8223
1311.12	15.4536
1314.49	3.86292
1317.87	0
