Measurement: Raman, 785 nm, unoriented, Raman Data Processed
Mineral: Spinel
Rruff sample: R060798
Ideal chemistry: MgAl_2_O_4_
Locality: Onentura mine, Camaguey Province, Cuba
Source: George Rossman
Description: Black granular massive
Measured chemistry: (Mg_0.77_Fe^2+^_0.23_)_Σ=1_(Al_1.09_Cr_0.82_Fe^3+^_0.09_)_Σ=2_O_4_
Raman shift (cm-1)	intensity
176.007	0
178.9	2.777
181.792	22.403
184.685	2.3
187.578	0.868
190.47	5.397
193.363	47.477
196.256	17.646
199.148	17.188
202.041	13.319
204.934	9.538
207.827	19.917
210.719	10.712
213.612	49.328
216.505	44.559
219.397	25.045
222.29	5.864
225.183	17.529
228.076	43.587
230.968	29.397
233.861	49.288
236.754	48.104
239.646	20.998
242.539	66.777
245.432	44.866
248.324	34.799
251.217	23.247
254.11	6.421
257.003	1.102
259.895	1.252
262.788	9.945
265.681	5.832
268.573	2.118
271.466	10.685
274.359	16.979
277.251	15.95
280.144	1.216
283.037	2.677
285.93	18.771
288.822	6.702
291.715	30.518
294.608	6.128
297.5	0.917
300.393	24.302
303.286	8.922
306.178	13.342
309.071	10.72
311.964	5.716
314.857	20.929
317.749	18.472
320.642	31.678
323.535	28.741
326.427	9.039
329.32	20.956
332.213	3.84
335.105	1.22
337.998	30.2
340.891	1.528
343.784	7.751
346.676	19.301
349.569	14.103
352.462	27.33
355.354	14.988
358.247	41.523
361.14	20.095
364.032	27.676
366.925	13.328
369.818	19.374
372.711	12.999
375.603	31.158
378.496	30.51
381.389	47.771
384.281	44.525
387.174	17.576
390.067	6.212
392.959	15.285
395.852	48.273
398.745	0.858
401.638	54.329
404.53	48.73
407.423	17.98
410.316	29.57
413.208	49.223
416.101	13.706
418.994	38.358
421.886	42.097
424.779	38.781
427.672	29.662
430.565	28.257
433.457	15.621
436.35	11.632
439.243	41.64
442.135	13.601
445.028	15.093
447.921	27.331
450.813	38.301
453.706	10.28
456.599	56.178
459.491	14.183
462.384	31.529
465.277	33.697
468.17	25.846
471.062	26.781
473.955	47.775
476.848	56.736
479.74	52.718
482.633	17.546
485.526	2.018
488.418	18.527
491.311	5.41
494.204	33.678
497.097	0.982
499.989	23.938
502.882	24.415
505.775	27.79
508.667	37.402
511.56	31.823
514.453	34.784
517.346	44.889
520.238	96.561
523.131	118.933
526.024	138.842
528.916	117.248
531.809	143.788
534.702	114.976
537.594	108.829
540.487	119.1
543.38	114.644
546.273	105.892
549.165	56.194
552.058	84.251
554.951	121.313
557.843	114.99
560.736	146.854
563.629	143.041
566.521	155.187
569.414	126.267
572.307	204.38
575.2	201.632
578.092	206.176
580.985	212.411
583.878	266.656
586.77	284.95
589.663	315.077
592.556	315.174
595.448	353.248
598.341	337.269
601.234	348.27
604.127	383.774
607.019	371.588
609.912	367.288
612.805	401.363
615.697	356.202
618.59	348.11
621.483	344.928
624.375	316.637
627.268	305.583
630.161	301.986
633.054	250.82
635.946	235.026
638.839	162.057
641.732	142.72
644.624	92.001
647.517	95.821
650.41	75.235
653.302	97.811
656.195	167.827
659.088	182.856
661.981	275.842
664.873	293.28
667.766	327.439
670.659	337.556
673.551	314.757
676.444	306.414
679.337	298.47
682.229	338.239
685.122	331.153
688.015	333.437
690.907	369.999
693.8	396.434
696.693	477.955
699.586	553.089
702.478	577.324
705.371	580.98
708.264	705.417
711.156	765.27
714.049	829.551
716.942	886.142
719.834	852.334
722.727	837.266
725.62	765.822
728.513	717.453
731.405	591.769
734.298	543.207
737.191	457.478
740.083	398.413
742.976	363.492
745.869	272.499
748.761	227.507
751.654	231.785
754.547	194.245
757.44	176.853
760.332	134.838
763.225	123.387
766.118	96.784
769.01	47.242
771.903	112.056
774.796	65.873
777.688	40.213
780.581	35.227
783.474	0.401
786.367	25.892
789.259	28.702
792.152	6.392
795.045	18.39
797.937	23.761
800.83	31.644
803.723	52.392
806.615	57.605
809.508	0.355
812.401	17.776
815.294	4.507
818.186	11.811
821.079	8.528
823.972	12.275
826.864	27.58
829.757	24.344
832.65	20.029
835.542	8.874
838.435	14.536
841.328	18.018
844.221	14.438
847.113	3.944
850.006	1.071
852.899	6.367
855.791	27.642
858.684	45.74
861.577	9.223
864.469	13.68
867.362	11.436
870.255	0.303
873.148	11.827
876.04	1.635
878.933	3.455
881.826	2.029
884.718	30.507
887.611	4.925
890.504	25.802
893.396	26.318
896.289	2.94
899.182	20.661
902.075	35.326
904.967	23.739
907.86	4.491
910.753	25.851
913.645	20.028
916.538	11.379
919.431	11.201
922.323	11.874
925.216	3.486
928.109	22.469
931.002	16.336
933.894	26.963
936.787	33.164
939.68	33.168
942.572	11.352
945.465	28.328
948.358	30.186
951.25	25.422
954.143	16.384
957.036	10.616
959.929	21.713
962.821	12.342
965.714	5.339
968.607	25.03
971.499	23.874
974.392	40.384
977.285	25.153
980.177	40.844
983.07	18.749
985.963	2.233
988.856	26.9
991.748	3.084
994.641	47.087
997.534	1.248
1000.43	35.725
1003.32	30.159
1006.21	33.176
1009.1	49.351
1012	32.469
1014.89	40.033
1017.78	45.235
1020.67	29.216
1023.57	1.193
1026.46	19.793
1029.35	7.564
1032.25	31.193
1035.14	13.362
1038.03	70.149
1040.92	42.667
1043.82	40.789
1046.71	51.044
1049.6	14.012
1052.49	30.255
1055.39	27.034
1058.28	66.526
1061.17	38.408
1064.07	15.228
1066.96	7.885
1069.85	19.502
1072.74	25.97
1075.64	30.045
1078.53	12.949
1081.42	37.453
1084.32	41.889
1087.21	36.272
1090.1	32.734
1092.99	5.087
1095.88	55.54
1098.78	22.718
1101.67	51.445
1104.56	44.325
1107.46	9.621
1110.35	31.922
1113.24	27.453
1116.13	26.815
1119.03	12.071
1121.92	20.026
1124.81	65.172
1127.7	44.605
1130.6	44.164
1133.49	30.895
1136.38	47.634
1139.28	23.488
1142.17	45.094
1145.06	32.63
1147.95	33.4
1150.85	9.103
1153.74	9.188
1156.63	26.861
1159.53	58.127
1162.42	14.79
1165.31	5.93
1168.2	25.99
1171.1	20.52
1173.99	25.28
1176.88	8.876
1179.77	36.358
1182.67	35.342
1185.56	7.66
1188.45	16.159
1191.34	19.061
1194.24	5.401
1197.13	75.136
1200.02	40.83
1202.91	11.093
1205.81	6.965
1208.7	39.178
1211.59	3.84
1214.49	17.95
1217.38	43.106
1220.27	20.047
1223.16	15.209
1226.06	44.714
1228.95	40.627
1231.84	1.257
1234.73	24.243
1237.63	5.002
1240.52	9.089
1243.41	25.449
1246.31	29.615
1249.2	13.374
1252.09	26.734
1254.98	2.196
1257.88	15.189
1260.77	16.636
1263.66	2.319
