Measurement: Raman, 532 nm, unoriented, Raman Data Processed
Mineral: Spinel
Rruff sample: X080014
Ideal chemistry: MgAl_2_O_4_
Locality: Synthetic
Source: Gemological Institute of America
Description: Faceted blue gemstone, 7.90 ct
Raman shift (cm-1)	intensity
145.969	0
148.862	3.91772
151.755	1.84302
154.647	28.1196
157.54	18.2253
160.433	10.8962
163.325	21.8401
166.218	23.2622
169.111	14.8723
172.003	13.0593
174.896	1.72632
177.789	0.814697
180.681	11.3398
183.574	6.46069
186.467	21.0193
189.36	17.8948
192.252	18.7991
195.145	28.5347
198.038	24.7395
200.93	19.9058
203.823	15.0718
206.716	13.4602
209.608	11.4148
212.501	4.07568
215.394	1.12158
218.287	10.6919
221.179	14.3374
224.072	12.7117
226.965	3.94019
229.857	1.57007
232.75	1.81055
235.643	0.394531
238.536	3.34009
241.428	0.326904
244.321	0.144531
247.214	1.37036
250.106	0.858643
252.999	11.5464
255.892	14.9092
258.784	12.5649
261.677	6.31177
264.57	12.6741
267.462	19.521
270.355	11.7146
273.248	10.447
276.141	22.209
279.033	29.4275
281.926	33.3398
284.819	36.1135
287.711	59.8096
290.604	64.0523
293.497	66.1326
296.389	60.8987
299.282	62.1501
302.175	58.0198
305.068	50.7671
307.96	48.46
310.853	55.1951
313.746	48.4817
316.638	54.4402
319.531	50.3811
322.424	51.8584
325.317	53.0381
328.209	56.2371
331.102	62.6943
333.995	61.5049
336.887	67.3926
339.78	63.2251
342.673	59.9148
345.565	47.4707
348.458	43.5679
351.351	33.7161
354.243	24.3716
357.136	20.9065
360.029	6.87524
362.922	0.03833
365.814	5.79517
368.707	6.12061
371.6	0.1521
374.492	9.1416
377.385	18.2676
380.278	27.4873
383.171	51.3862
386.063	79.1414
388.956	86.97
391.849	113.379
394.741	128.541
397.634	156.224
400.527	161.974
403.419	169.183
406.312	189.967
409.205	194.213
412.098	193.547
414.99	199.752
417.883	190.617
420.776	186.648
423.668	181.664
426.561	161.492
429.454	147.849
432.346	133.38
435.239	115.003
438.132	100.28
441.024	88.2522
443.917	70.6145
446.81	53.4172
449.703	41.8284
452.595	23.8821
455.488	15.1914
458.381	17.4705
461.273	14.9609
464.166	14.9641
467.059	10.7676
469.952	2.66467
472.844	3.8656
475.737	3.40442
478.63	5.75977
481.522	5.8241
484.415	5.25891
487.308	1.5398
490.2	6.82544
493.093	5.85144
495.986	14.8038
498.878	8.62378
501.771	12.6092
504.664	15.5721
507.557	14.6929
510.449	12.5796
513.342	10.7624
516.235	13.004
519.127	9.98071
522.02	23.193
524.913	16.2285
527.806	25.6959
530.698	18.1133
533.591	9.02918
536.484	13.9613
539.376	11.0139
542.269	15.4359
545.162	11.569
548.054	13.9357
550.947	5.59973
553.84	4.86145
556.732	4.34644
559.625	4.59644
562.518	5.53748
565.411	4.32593
568.303	4.88061
571.196	8.44519
574.089	2.83521
576.981	4.7146
579.874	9.72546
582.767	15.9175
585.659	10.6405
588.552	18.8127
591.445	14.0784
594.338	3.90478
597.23	11.1954
600.123	12.8684
603.016	6.95642
605.908	11.7975
608.801	10.3224
611.694	10.696
614.587	15.1698
617.479	2.55566
620.372	1.54053
623.265	0.902954
626.157	1.85754
629.05	1.44641
631.943	1.69739
634.835	6.64331
637.728	8.46423
640.621	6.05005
643.514	6.93347
646.406	1.33594
649.299	3.5614
652.192	9.11804
655.084	7.8905
657.977	15.42
660.87	21.696
663.762	20.1266
666.655	25.4699
669.548	30.3368
672.441	29.2386
675.333	39.8423
678.226	41.5178
681.119	53.0021
684.011	59.6718
686.904	61.6605
689.797	62.8514
692.689	62.3335
695.582	54.8221
698.475	51.7002
701.367	42.7605
704.26	36.5231
707.153	35.2084
710.046	28.1113
712.938	22.562
715.831	23.5648
718.724	17.1252
721.616	11.0375
724.509	9.66919
727.402	13.4465
730.294	6.17957
733.187	4.91101
736.08	1.3634
738.973	4.2561
741.865	3.22095
744.758	1.25342
747.651	0.526245
750.543	3.85852
753.436	7.51831
756.329	11.4541
759.221	15.7803
762.114	23.6022
765.007	26.9276
767.9	36.334
770.792	38.404
773.685	43.1797
776.578	48.4498
779.47	35.4249
782.363	38.1785
785.256	33.6682
788.149	29.3496
791.041	30.7413
793.934	33.3654
796.827	32.1783
799.719	27.1415
802.612	24.7275
805.505	23.3237
808.397	19.4772
811.29	17.8661
814.183	19.2501
817.076	14.8729
819.968	23.4949
822.861	15.5703
825.754	2.08521
828.646	5.85815
831.539	2.7179
834.432	7.82776
837.324	5.27295
840.217	12.5748
843.11	18.4176
846.003	15.3938
848.895	19.8628
851.788	19.4448
854.681	28.519
857.573	38.2052
860.466	50.0215
863.359	49.6045
866.251	51.516
869.144	57.7129
872.037	50.7864
874.929	44.1801
877.822	35.3169
880.715	29.1212
883.608	25.1254
886.5	20.9473
889.393	18.2081
892.286	19.0023
895.178	20.4533
898.071	15.8475
900.964	14.3154
903.856	20.4409
906.749	23.4393
909.642	21.4804
912.535	16.8514
915.427	25.5226
918.32	21.483
921.213	19.8501
924.105	23.537
926.998	21.2385
929.891	20.5618
932.784	6.495
935.676	3.75586
938.569	3.89563
941.462	0.457642
944.354	0.290894
947.247	0.565796
950.14	8.16333
953.032	0.591309
955.925	2.28027
958.818	2.27588
961.711	6.15649
964.603	9.38831
967.496	4.76672
970.389	9.45532
973.281	13.469
976.174	9.37012
979.067	19.9778
981.959	16.3868
984.852	22.2532
987.745	23.4237
990.638	17.6509
993.53	13.75
996.423	18.6953
999.316	12.761
1002.21	19.8833
1005.1	9.06592
1007.99	11.6643
1010.89	14.4507
1013.78	8.59985
1016.67	1.34106
1019.57	7.29468
1022.46	9.33325
1025.35	6.0957
1028.24	11.593
1031.13	1.73682
1034.03	2.05298
1036.92	3.33838
1039.81	3.93018
1042.71	9.0376
1045.6	12.7703
1048.49	6.18213
1051.38	3.80322
1054.28	7.6731
1057.17	7.68384
1060.06	12.3508
1062.95	15.3503
1065.85	13.1585
1068.74	14.8643
1071.63	8.76099
1074.53	10.3369
1077.42	20.4182
1080.31	16.2922
1083.2	11.749
1086.1	8.52466
1088.99	8.97437
1091.88	1.3562
1094.78	10.2009
1097.67	16.6567
1100.56	22.8101
1103.45	22.561
1106.35	20.9084
1109.24	17.5183
1112.13	12.2134
1115.02	13.7253
1117.92	13.9597
1120.81	19.7742
1123.7	20.0884
1126.59	22.115
1129.49	20.9854
1132.38	26.9121
1135.27	29.6081
1138.16	28.0835
1141.06	22.8899
1143.95	18.4163
1146.84	16.2722
1149.74	20.6216
1152.63	27.7078
1155.52	25.3581
1158.41	21.8044
1161.31	18.6091
1164.2	21.9868
1167.09	16.7241
1169.98	19.7026
1172.88	8.95483
1175.77	9.63159
1178.66	2.48828
1181.56	9.19922
1184.45	0.277344
1187.34	5.56128
1190.23	3.59228
1193.13	0.215576
1196.02	0.195801
1198.91	1.66309
1201.81	3.79272
1204.7	2.3208
1207.59	0.540039
1210.48	2.14844
1213.38	6.88428
1216.27	1.22803
1219.16	9.55762
1222.05	5.83643
1224.95	11.0149
1227.84	14.6729
1230.73	30.282
1233.62	16.9878
1236.52	18.0356
1239.41	26.4436
1242.3	20.1001
1245.19	15.7935
1248.09	21.7117
1250.98	12.6836
1253.87	15.6116
1256.77	13.6973
1259.66	11.9407
1262.55	17.3328
1265.44	10.4226
1268.34	1.15576
1271.23	8.26367
1274.12	1.8186
