Measurement: Raman, 532 nm, unoriented, Raman Data Processed
Mineral: Spinel
Rruff sample: R060798
Ideal chemistry: MgAl_2_O_4_
Locality: Onentura mine, Camaguey Province, Cuba
Source: George Rossman
Description: Black granular massive
Measured chemistry: (Mg_0.77_Fe^2+^_0.23_)_Σ=1_(Al_1.09_Cr_0.82_Fe^3+^_0.09_)_Σ=2_O_4_
Raman shift (cm-1)	intensity
160.574	0
163.467	10.3845
166.36	9.3736
169.253	17.9217
172.145	44.2791
175.038	28.5229
177.931	21.0437
180.823	49.2263
183.716	22.5238
186.609	49.9836
189.501	49.1252
192.394	33.5505
195.287	8.68756
198.18	54.2862
201.072	12.0921
203.965	36.4725
206.858	13.7027
209.75	26.2152
212.643	13.196
215.536	18.3651
218.428	2.51001
221.321	28.1576
224.214	8.8634
227.107	25.816
229.999	47.5436
232.892	16.0482
235.785	52.1134
238.677	25.8896
241.57	19.1594
244.463	41.2774
247.355	3.58264
250.248	4.15353
253.141	2.16373
256.033	24.6225
258.926	29.1711
261.819	25.8209
264.711	77.0334
267.604	20.7277
270.497	48.6576
273.39	43.7548
276.282	40.5792
279.175	45.3135
282.068	43.3084
284.96	47.5607
287.853	15.3638
290.746	46.7465
293.638	14.2667
296.531	16.6116
299.424	15.5952
302.317	26.1896
305.209	40.697
308.102	51.3625
310.995	21.019
313.887	54.6715
316.78	21.5724
319.673	39.1731
322.565	50.7563
325.458	23.9618
328.351	31.8026
331.244	34.7179
334.136	16.0789
337.029	6.46677
339.922	24.4593
342.814	40.0791
345.707	18.2154
348.6	2.42715
351.492	16.9384
354.385	6.78052
357.278	24.3755
360.171	28.4931
363.063	16.5004
365.956	24.8994
368.849	27.9234
371.741	63.9811
374.634	50.2772
377.527	0.360474
380.419	31.2059
383.312	11.8137
386.205	0.5914
389.098	21.009
391.99	33.2989
394.883	48.9839
397.776	15.6969
400.668	42.4305
403.561	19.7688
406.454	15.1795
409.346	41.3388
412.239	37.3442
415.132	35.0674
418.025	59.69
420.917	2.89752
423.81	21.0092
426.703	25.4764
429.595	28.9379
432.488	24.7977
435.381	7.12994
438.273	31.5205
441.166	9.24246
444.059	20.3303
446.952	9.88126
449.844	43.947
452.737	5.33014
455.63	30.7735
458.522	34.4793
461.415	32.9189
464.308	35.1895
467.2	18.5341
470.093	11.2498
472.986	36.1981
475.878	60.7501
478.771	9.51639
481.664	22.1673
484.556	18.8782
487.449	33.1149
490.342	30.5917
493.235	31.4079
496.127	2.53915
499.02	18.3129
501.913	16.4226
504.805	9.88739
507.698	27.1533
510.591	4.87213
513.484	14.3572
516.376	17.0591
519.269	10.2108
522.162	29.1967
525.054	36.6416
527.947	90.0338
530.84	115.163
533.732	117.85
536.625	109.348
539.518	97.764
542.411	116.926
545.303	104.731
548.196	162.41
551.089	126.864
553.981	168.515
556.874	196.106
559.767	208.692
562.659	239.616
565.552	237.692
568.445	278.546
571.338	259.022
574.23	304.858
577.123	307.234
580.016	323.154
582.908	322.111
585.801	370.191
588.694	361.55
591.586	418.446
594.479	400.586
597.372	398.768
600.265	394.933
603.157	347.245
606.05	350.365
608.943	352.721
611.835	289.132
614.728	305.529
617.621	289.409
620.513	246.389
623.406	235.23
626.299	177.128
629.191	141.268
632.084	79.125
634.977	68.2445
637.87	25.0656
640.762	8.86572
643.655	28.8598
646.548	29.1417
649.44	15.2043
652.333	19.8795
655.226	40.7859
658.118	82.6822
661.011	160.5
663.904	134.078
666.797	219.266
669.689	196.577
672.582	207.253
675.474	212.641
678.367	172.313
681.26	204.45
684.153	190.378
687.045	217.677
689.938	252.589
692.831	286.929
695.723	321.408
698.616	337.122
701.509	416.104
704.402	443.963
707.294	454.823
710.187	473.604
713.08	500.171
715.972	567.903
718.865	545.341
721.758	533.348
724.651	490.217
727.543	429.048
730.436	358.437
733.328	279.344
736.221	255.322
739.114	232.067
742.007	203.41
744.899	162.568
747.792	132.387
750.685	127.029
753.577	52.8783
756.47	82.5036
759.363	69.5451
762.255	35.972
765.148	41.99
768.041	32.342
770.934	15.2194
773.826	35.2848
776.719	1.90671
779.612	18.1737
782.504	24.4509
785.397	4.37186
788.29	13.9905
791.182	10.5528
794.075	5.78262
796.968	2.99478
799.86	2.01715
802.753	2.06729
805.646	23.1234
808.539	13.0443
811.431	3.98651
814.324	3.60406
817.217	29.2986
820.109	29.4847
823.002	31.9429
825.895	45.5937
828.787	56.2348
831.68	47.5484
834.573	33.7539
837.466	35.7183
840.358	24.3123
843.251	12.3399
846.144	23.5133
849.036	53.7598
851.929	47.3604
854.822	41.165
857.714	43.0427
860.607	53.8154
863.5	58.3519
866.393	59.8284
869.285	54.1642
872.178	29.7547
875.071	39.0138
877.963	4.38705
880.856	14.4902
883.749	4.57651
886.641	19.2025
889.534	17.9793
892.427	8.22787
895.32	35.9067
898.212	40.1374
901.105	6.78658
903.998	48.883
906.89	40.374
909.783	28.4154
912.676	62.6808
915.568	39.2277
918.461	38.7824
921.354	28.6365
924.247	21.0971
927.139	5.27225
930.032	6.64645
932.925	10.5137
935.817	14.6204
938.71	22.0041
941.603	57.0325
944.495	41.0868
947.388	30.5134
950.281	36.9909
953.174	24.0906
956.066	32.0739
958.959	27.7235
961.852	22.9253
964.744	42.4273
967.637	7.14865
970.53	1.71161
973.422	4.6302
976.315	25.1831
979.208	16.4224
982.101	42.8663
984.993	47.9804
987.886	12.7369
990.779	37.3519
993.671	26.998
996.564	28.4505
999.457	36.8325
1002.35	28.6344
1005.24	9.57095
1008.13	22.9909
1011.03	6.87392
1013.92	6.4332
1016.81	32.3966
1019.71	33.0907
1022.6	46.7739
1025.49	37.9649
1028.38	51.5669
1031.28	42.8591
1034.17	51.2269
1037.06	58.6483
1039.95	29.974
1042.85	11.8951
1045.74	9.98993
1048.63	20.2488
1051.53	23.4913
1054.42	39.3928
1057.31	57.8468
1060.2	41.388
1063.1	68.4592
1065.99	45.6952
1068.88	34.8563
1071.77	32.8817
1074.67	20.42
1077.56	3.86264
1080.45	0.51178
1083.35	16.1357
1086.24	1.77557
1089.13	13.6921
1092.02	29.3041
1094.92	25.1453
1097.81	30.9194
1100.7	39.243
1103.59	35.2399
1106.49	34.7668
1109.38	31.3862
1112.27	17.2953
1115.16	19.539
1118.06	0.397949
1120.95	28.1078
1123.84	1.18713
1126.73	7.69739
1129.63	5.54602
1132.52	20.1291
1135.41	18.4137
1138.31	3.22955
1141.2	18.4363
1144.09	21.3242
1146.98	15.647
1149.88	51.4925
1152.77	17.3245
1155.66	4.64712
1158.56	14.4123
1161.45	2.41867
1164.34	19.3064
1167.23	22.4561
1170.13	34.5457
1173.02	21.8184
1175.91	18.4448
1178.8	21.049
1181.7	43.2998
1184.59	33.2914
1187.48	58.0556
1190.38	31.1352
1193.27	18.6463
1196.16	15.913
1199.05	26.1192
1201.94	33.4459
1204.84	7.30667
1207.73	22.2475
1210.62	37.3676
1213.52	30.7204
1216.41	48.8691
1219.3	12.8849
1222.19	49.9324
1225.09	38.7354
1227.98	39.8038
1230.87	31.1277
1233.77	20.9284
1236.66	24.2605
1239.55	9.57648
1242.44	42.9763
1245.34	14.0174
1248.23	8.75336
1251.12	30.442
1254.01	33.7589
1256.91	25.9109
1259.8	11.9452
1262.69	56.6797
1265.59	30.9113
1268.48	30.6626
1271.37	9.94858
1274.26	31.0695
1277.16	20.3115
1280.05	14.4651
1282.94	0
