Measurement: Raman, 785 nm, unoriented, Raman Data Processed
Mineral: Spinel
Rruff sample: R070013
Ideal chemistry: MgAl_2_O_4_
Locality: Bo Phloi, Kanchoutabori Province, Thailand
Source: Michael Scott
Description: Black glassy fragment with conchoidal fracture
Measured chemistry: (Mg_0.69_Fe^2+^_0.31_)_Σ=1_(Al_1.90_Fe^3+^_0.10_)_Σ=2_O_4_ ; trace of Mn, Ti and Cr
Raman shift (cm-1)	intensity
164.701	0
167.593	1.45898
170.486	47.2739
173.379	70.7429
176.271	72.7053
179.164	125.357
182.057	132.107
184.949	172.273
187.842	158.305
190.735	168.986
193.627	151.524
196.52	167.773
199.413	142.018
202.306	126.618
205.198	91.5449
208.091	59.1909
210.984	15.2622
213.876	20.7844
216.769	16.0762
219.662	0.959229
222.554	50.511
225.447	1.58545
228.34	23.738
231.232	14.0115
234.125	20.6623
237.018	17.6799
239.911	23.7307
242.803	16.5727
245.696	1.49219
248.589	7.18189
251.481	4.02148
254.374	30.6851
257.267	21.532
260.159	7.30615
263.052	58.4546
265.945	24.175
268.838	49.5159
271.73	37.7913
274.623	83.0488
277.516	58.1714
280.408	102.106
283.301	70.1355
286.194	100.088
289.087	120.867
291.979	95.8235
294.872	78.281
297.765	126.167
300.657	93.6289
303.55	115.133
306.443	145.256
309.335	158.472
312.228	136.771
315.121	108.287
318.014	143.678
320.906	138.746
323.799	109.158
326.692	153.593
329.584	120.736
332.477	154.696
335.37	148.502
338.262	118.473
341.155	101.519
344.048	96.5627
346.94	83.7168
349.833	120.663
352.726	98.9683
355.619	70.8726
358.511	66.4487
361.404	80.7022
364.297	29.0808
367.189	17.311
370.082	49.2891
372.975	42.1694
375.868	58.3762
378.76	48.8496
381.653	1.8562
384.546	26.5415
387.438	39.2185
390.331	42.7671
393.224	37.5185
396.116	29.6016
399.009	32.5527
401.902	34.207
404.795	0.194824
407.687	18.8591
410.58	11.061
413.473	5.62012
416.365	17.6484
419.258	5.74683
422.151	5.57129
425.043	11.4548
427.936	9.04688
430.829	22.0925
433.721	11.4507
436.614	2.98193
439.507	39.6309
442.4	22.8823
445.292	45.4741
448.185	30.1658
451.078	22.8914
453.97	2.21484
456.863	15.4617
459.756	36.5308
462.649	41.3501
465.541	65.4353
468.434	113.876
471.327	57.1257
474.219	61.2856
477.112	115.627
480.005	94.8328
482.897	113.51
485.79	106.24
488.683	79.1487
491.575	121.279
494.468	146.636
497.361	124.644
500.254	142.105
503.146	126.827
506.039	151.541
508.932	147.623
511.824	145.174
514.717	151.042
517.61	165.694
520.503	136.814
523.395	139.177
526.288	120.907
529.181	152.583
532.073	132.328
534.966	156.744
537.859	85.0386
540.751	122.233
543.644	73.5298
546.537	75.3386
549.429	93.9016
552.322	92.4194
555.215	50.061
558.107	48.0176
561	38.9192
563.893	39.2173
566.786	23.7398
569.678	54.9021
572.571	31.2956
575.464	12.0488
578.356	22.9109
581.249	2.43066
584.142	48.9592
587.034	19.002
589.927	0.218018
592.82	2.70068
595.713	4.68823
598.605	2.44507
601.498	13.8141
604.391	45.2048
607.283	32.1591
610.176	11.4941
613.069	3.25781
615.962	46.9628
618.854	15.5422
621.747	18.4359
624.64	35.9443
627.532	17.0906
630.425	51.0148
633.318	46.7884
636.21	39.2544
639.103	43.0337
641.996	42.9185
644.889	33.9415
647.781	29.8585
650.674	45.8307
653.567	42.2367
656.459	28.6298
659.352	28.2861
662.245	33.0499
665.138	3.87756
668.03	6.38831
670.923	17.5752
673.816	7.68213
676.708	8.19043
679.601	0.776855
682.494	2.91589
685.386	22.0591
688.279	14.9512
691.172	31.0508
694.064	59.2247
696.957	97.7814
699.85	92.0951
702.743	95.8766
705.635	86.099
708.528	101.229
711.421	112.955
714.313	109.218
717.206	111.929
720.099	106.013
722.991	115.154
725.884	141.167
728.777	128.133
731.67	173.408
734.562	195.127
737.455	202.617
740.348	217.039
743.24	239.227
746.133	240.671
749.026	264.107
751.918	213.987
754.811	189.884
757.704	203.743
760.596	188.345
763.489	160.701
766.382	166.38
769.275	153.017
772.167	93.9164
775.06	104.282
777.953	85.6973
780.845	62.0674
783.738	112.174
786.631	70.9781
789.524	62.8737
792.416	64.3224
795.309	77.4558
798.202	60.0997
801.094	44.6785
803.987	47.0397
806.88	44.2682
809.772	7.60364
812.665	36.2323
815.558	49.2568
818.451	25.3091
821.343	7.74854
824.236	27.4504
827.129	13.0333
830.021	35.1431
832.914	17.8307
835.807	23.4795
838.699	23.9416
841.592	6.28162
844.485	39.0232
847.378	9.79138
850.27	10.3767
853.163	0.321167
856.056	17.403
858.948	3.46094
861.841	33.9988
864.734	9.96045
867.626	16.9202
870.519	7.37903
873.412	4.02966
876.304	23.1481
879.197	15.4712
882.09	32.7533
884.983	9.64954
887.875	2.50037
890.768	45.6849
893.661	20.2924
896.553	40.8082
899.446	47.077
902.339	55.6105
905.231	30.3895
908.124	53.3901
911.017	16.2881
913.91	37.9136
916.802	44.1925
919.695	41.692
922.588	33.7236
925.48	15.6082
928.373	32.809
931.266	36.8261
934.159	44.0677
937.051	35.7583
939.944	19.692
942.837	15.8661
945.729	39.6376
948.622	8.04346
951.515	18.7985
954.407	23.7058
957.3	40.8253
960.193	38.9353
963.085	1.27527
965.978	42.5548
968.871	26.5393
971.764	15.8403
974.656	49.0227
977.549	8.83582
980.442	35.8989
983.334	34.0823
986.227	34.5798
989.12	7.07263
992.013	6.74585
994.905	6.18738
997.798	11.0167
1000.69	22.3462
1003.58	13.5265
1006.48	27.9098
1009.37	4.19629
1012.26	46.1855
1015.15	3.65137
1018.05	4.48206
1020.94	25.5511
1023.83	32.9791
1026.72	41.7699
1029.62	5.90088
1032.51	5.07324
1035.4	17.442
1038.3	23.7638
1041.19	24.9757
1044.08	19.5656
1046.97	20.8785
1049.87	53.584
1052.76	2.33276
1055.65	23.4147
1058.55	1.47498
1061.44	36.6982
1064.33	23.4077
1067.22	21.849
1070.12	22.1339
1073.01	12.1545
1075.9	14.6831
1078.79	3.474
1081.69	15.1172
1084.58	39.2539
1087.47	16.9236
1090.36	18.7871
1093.26	45.6389
1096.15	33.2253
1099.04	24.0895
1101.93	27.0845
1104.83	17.5099
1107.72	35.5717
1110.61	12.4292
1113.51	22.5306
1116.4	0.497681
1119.29	10.3772
1122.18	11.4261
1125.08	17.1671
1127.97	34.3247
1130.86	29.8458
1133.76	20.9646
1136.65	44.4265
1139.54	32.5565
1142.43	37.1624
1145.33	14.4312
1148.22	34.353
1151.11	16.0926
1154	20.6797
1156.9	4.63672
1159.79	5.14258
1162.68	34.1688
1165.57	13.3013
1168.47	19.8219
1171.36	17.1893
1174.25	21.0359
1177.14	15.2346
1180.04	26.8412
1182.93	26.3608
1185.82	23.3998
1188.72	31.1074
1191.61	3.75995
1194.5	14.2579
1197.39	34.9512
1200.29	42.9968
1203.18	44.7924
1206.07	25.9252
1208.96	17.5362
1211.86	21.2787
1214.75	40.7888
1217.64	38.817
1220.54	27.9979
1223.43	18.0452
1226.32	15.8309
1229.21	32.5931
1232.11	4.93854
1235	12.9359
1237.89	17.2834
1240.79	16.1414
1243.68	10.3074
