Measurement: Raman, 780 nm, unoriented, Raman Data Processed
Mineral: Spurrite
Rruff sample: R070632
Ideal chemistry: Ca_5_(SiO_4_)_2_(CO_3_)
Locality: Huka, Okayama, Japan
Source: Shinichi Kihara
Description: Massive lavender fragment
Raman shift (cm-1)	intensity
94.8815	0
97.7742	182.734
100.667	585.842
103.56	798.206
106.452	975.866
109.345	802.164
112.238	280.182
115.13	81.4665
118.023	22.115
120.916	61.8855
123.808	247.059
126.701	461.289
129.594	455.667
132.487	305.679
135.379	185.644
138.272	348.508
141.165	541.292
144.057	840.532
146.95	1168.7
149.843	1660.79
152.736	1690.62
155.628	1416.2
158.521	1493.38
161.414	1916.78
164.306	2084.04
167.199	1774.89
170.092	1847.73
172.984	2058.33
175.877	1388.2
178.77	854.878
181.663	591.914
184.555	304.604
187.448	146.96
190.341	96.7585
193.233	63.8708
196.126	27.957
199.019	54.5337
201.911	9.17139
204.804	9.96973
207.697	52.6121
210.59	53.9075
213.482	12.3616
216.375	87.9465
219.268	283.066
222.16	487.641
225.053	670.487
227.946	575.205
230.839	316.23
233.731	273.726
236.624	263.099
239.517	286.307
242.409	247.081
245.302	313.313
248.195	430.891
251.087	655.985
253.98	809.336
256.873	936.47
259.765	1000.71
262.658	1103.71
265.551	1271.54
268.444	1303.95
271.336	1116.02
274.229	1028.95
277.122	951.133
280.014	870.606
282.907	792.997
285.8	682.88
288.692	629.075
291.585	625.746
294.478	594.025
297.371	637.435
300.263	555.188
303.156	508.048
306.049	418.679
308.941	332.544
311.834	291.751
314.727	234.421
317.62	199.761
320.512	55.8362
323.405	21.1186
326.298	68.5854
329.19	9.21435
332.083	73.6699
334.976	240.208
337.868	364.16
340.761	625.048
343.654	874.059
346.547	1124.63
349.439	1425.03
352.332	1654.55
355.225	1782.18
358.117	1692.42
361.01	1547.09
363.903	1284.21
366.796	1007.31
369.688	631.23
372.581	450.187
375.474	290.522
378.366	176.434
381.259	36.7266
384.152	157.685
387.044	221.619
389.937	277.882
392.83	142.324
395.723	56.3574
398.615	174.608
401.508	510.089
404.401	752.114
407.293	985.741
410.186	1202.26
413.079	1522.7
415.971	1907.32
418.864	2621.59
421.757	3345.99
424.649	4117.59
427.542	4903.83
430.435	5753.27
433.328	6617.67
436.22	7384.67
439.113	8129.75
442.006	8768.21
444.898	9478.16
447.791	10581.8
450.684	12310.1
453.577	14778.9
456.469	17708.9
459.362	21033.2
462.255	24509.9
465.147	27024.7
468.04	28442.2
470.933	28615.9
473.825	27789.7
476.718	26276
479.611	24240.9
482.503	21939.9
485.396	18848.5
488.289	15736.7
491.182	12812.2
494.074	10218.7
496.967	8144.4
499.86	6519.93
502.752	5363.12
505.645	4400.24
508.538	3578.43
511.43	2960.58
514.323	2519.55
517.216	2125.08
520.109	1893.61
523.001	1464.8
525.894	835.466
528.787	405.248
531.679	129.588
534.572	39.3223
537.465	117.765
540.357	126.876
543.25	121.037
546.143	120.368
549.036	78.0454
551.928	94.6675
554.821	4.21533
557.714	5.69043
560.606	67.3711
563.499	166.647
566.392	265.909
569.284	376.698
572.177	499.832
575.07	583.168
577.963	733.965
580.855	841.623
583.748	976.361
586.641	1002.62
589.534	1082.52
592.426	1145.91
595.319	1175.72
598.212	1161.48
601.104	1073.5
603.997	934.286
606.89	835.172
609.782	673.518
612.675	498.99
615.568	303.323
618.461	207.893
621.353	133.025
624.246	28.0205
627.139	12.5835
630.031	2.55273
632.924	6.35498
635.817	2.38623
638.709	32.5894
641.602	29.7031
644.495	8.00635
647.388	53.9683
650.28	86.71
653.173	117.472
656.066	168.881
658.958	262.461
661.851	312.148
664.744	448.683
667.636	541.598
670.529	677.504
673.422	745.113
676.314	824.796
679.207	915.342
682.1	987.707
684.993	1050.07
687.885	1106.52
690.778	1261.49
693.671	1395.51
696.563	1780.32
699.456	2193.08
702.349	2912.53
705.241	2601.22
708.134	1719.87
711.027	1511.93
713.92	1405.2
716.812	1342.35
719.705	1240.41
722.598	1161.42
725.49	1020.23
728.383	978.875
731.276	886.614
734.169	852.513
737.061	803.195
739.954	779.214
742.847	666.527
745.739	600.767
748.632	519.25
751.525	368.555
754.418	260.148
757.31	175
760.203	60.2192
763.096	0.117676
765.988	34.4414
768.881	26.5566
771.774	37.6431
774.666	34.4087
777.559	49.5391
780.452	90.4502
783.345	153.026
786.237	226.931
789.13	260.117
792.023	283.687
794.915	321.366
797.808	352.713
800.701	374.728
803.593	343.211
806.486	359.788
809.379	376.248
812.271	289.826
815.164	285.81
818.057	209.677
820.95	177.946
823.842	131.405
826.735	14.1677
829.628	17.0193
832.52	19.522
835.413	38.5798
838.306	12.7358
841.198	235.83
844.091	750.136
846.984	1455.24
849.877	2588.43
852.769	3817.58
855.662	3333.19
858.555	2397.18
861.447	2819.98
864.34	4494.35
867.233	4449.69
870.125	2136.66
873.018	739.197
875.911	391.753
878.804	303.424
881.696	354.178
884.589	408.36
887.482	538.453
890.375	357.929
893.267	314.099
896.16	189.58
899.053	147.091
901.945	143.348
904.838	136.3
907.731	176.068
910.623	173.588
913.516	200.5
916.409	253.058
919.302	385.957
922.194	464.201
925.087	483.779
927.98	467.239
930.872	507.788
933.765	653.038
936.658	688.436
939.55	703.601
942.443	790.539
945.336	1157.16
948.229	1698.47
951.121	1759.42
954.014	979.287
956.907	320.769
959.799	113.102
962.692	9.45666
965.585	3.53992
968.477	32.3994
971.37	60.068
974.263	29.6062
977.155	13.4416
980.048	24.5789
982.941	56.3359
985.834	89.7787
988.726	126.709
991.619	142.947
994.512	128.7
997.404	203.04
1000.3	219.917
1003.19	244.667
1006.08	284.498
1008.98	271.602
1011.87	272.522
1014.76	275.641
1017.65	309.747
1020.55	294.647
1023.44	298.688
1026.33	299.168
1029.22	245.454
1032.12	228.893
1035.01	237.511
1037.9	526.106
1040.8	350.109
1043.69	234.322
1046.58	234.876
1049.47	255.131
1052.37	238.726
1055.26	286.597
1058.15	316.518
1061.04	340.534
1063.94	341.683
1066.83	404.59
1069.72	729.172
1072.62	1807.62
1075.51	3754.7
1078.4	7621.08
1081.29	11113.1
1084.18	4763.02
1087.08	1579.83
1089.97	701.589
1092.86	504.248
1095.76	463.676
1098.65	417.089
1101.54	409.654
1104.43	379.953
1107.33	398.655
1110.22	335.21
1113.11	313.881
1116.01	253.433
1118.9	233.398
1121.79	243.386
1124.68	158.235
1127.58	44.9866
1130.47	79.7488
1133.36	35.2241
1136.25	5.29614
1139.15	6.32861
1142.04	18.562
1144.93	78.2188
1147.83	78.6992
1150.72	100.064
1153.61	99.1489
1156.5	146.417
1159.4	220.825
1162.29	47.7222
1165.18	103.944
1168.07	78.8174
1170.97	125.595
1173.86	131.06
1176.75	106.642
1179.64	105.33
1182.54	60.0869
1185.43	72.4443
1188.32	26.3936
