Measurement: Raman, 532 nm, unoriented, Raman Data Processed
Mineral: Steacyite
Rruff sample: R130053
Ideal chemistry: K_0.3_(Na,Ca)_2_Th^4+^Si_8_O_20_
Locality: Mont Saint-Hilaire, Rouville RCM, Monteregie, Quebec, Canada
Source: Don Doell
Description: Light-brown rectangular prism
Raman shift (cm-1)	intensity
230.14	0
233.032	0.804367
235.925	0.210403
238.818	1.48413
241.71	2.95546
244.603	2.75732
247.496	2.41972
250.389	1.08762
253.281	2.03831
256.174	1.62064
259.067	2.18204
261.959	2.63281
264.852	0.07103
267.745	1.34708
270.637	0.612976
273.53	1.85597
276.423	1.40607
279.316	0.794647
282.208	1.47273
285.101	2.78612
287.994	1.29198
290.886	0.567474
293.779	0.960449
296.672	0.903091
299.565	0.544861
302.457	0.44809
305.35	0.580917
308.243	0.341187
311.135	1.13811
314.028	0.673584
316.921	2.59831
319.813	0.019455
322.706	1.11997
325.599	2.13147
328.491	0.643219
331.384	1.20503
334.277	0.70491
337.17	1.14694
340.062	2.90361
342.955	1.91975
345.848	0.962143
348.74	0.761078
351.633	2.92148
354.526	0.459671
357.418	0.720871
360.311	1.15736
363.204	0.527267
366.097	1.42584
368.989	0.996109
371.882	0.816284
374.775	0.736176
377.667	1.55763
380.56	0.435623
383.453	0.054291
386.346	0.884811
389.238	1.14648
392.131	1.49695
395.024	1.85027
397.916	0.983551
400.809	1.6357
403.702	2.26605
406.594	1.90869
409.487	2.53857
412.38	3.65648
415.272	2.93498
418.165	2.778
421.058	1.55618
423.951	2.51575
426.843	2.65327
429.736	4.67491
432.629	3.00929
435.521	3.19104
438.414	3.62642
441.307	3.10155
444.2	2.36961
447.092	2.82811
449.985	2.31722
452.878	1.94354
455.77	1.58827
458.663	2.83263
461.556	2.06346
464.448	3.63324
467.341	2.11754
470.234	2.40439
473.127	2.90602
476.019	1.07462
478.912	1.29858
481.805	0.584961
484.697	0.71376
487.59	0.573624
490.483	0.151398
493.375	0.500031
496.268	0.44046
499.161	0.704346
502.053	1.13675
504.946	0.499603
507.839	1.3803
510.732	0.109192
513.624	0.85878
516.517	1.60552
519.41	0.634933
522.302	0.658524
525.195	0.77977
528.088	1.3067
530.981	0.198425
533.873	0.634659
536.766	0.889023
539.659	1.16421
542.551	0.561584
545.444	1.2993
548.337	0.599014
551.229	1.76834
554.122	0.407761
557.015	0.965515
559.908	1.42308
562.8	0.382523
565.693	1.25561
568.586	0.945572
571.478	1.66144
574.371	1.03499
577.264	1.1927
580.156	1.13435
583.049	2.00114
585.942	0.772003
588.835	1.64302
591.727	1.45116
594.62	0.368774
597.513	1.22369
600.405	0.241394
603.298	0.725647
606.191	0.05246
609.083	0.981873
611.976	0.136841
614.869	0.465897
617.761	1.39661
620.654	0.455963
623.547	1.1747
626.44	1.14793
629.332	0.89502
632.225	1.62747
635.118	1.68131
638.01	3.17424
640.903	3.59889
643.796	3.06732
646.688	1.24706
649.581	2.12775
652.474	1.15927
655.367	3.21567
658.259	0.896744
661.152	1.87964
664.045	1.12953
666.937	0.832932
669.83	1.47865
672.723	0.92215
675.615	1.92554
678.508	1.33661
681.401	0.888214
684.294	0.122849
687.186	0.264755
690.079	0.90979
692.972	1.35475
695.864	0.764496
698.757	1.81668
701.65	1.64325
704.543	1.27202
707.435	1.746
710.328	0.883453
713.221	0.103928
716.113	0.009125
719.006	0.382095
721.899	1.67355
724.791	1.15866
727.684	1.49609
730.577	1.12581
733.47	0.708664
736.362	1.78261
739.255	1.59416
742.148	1.45168
745.04	0.271362
747.933	2.64067
750.826	1.04465
753.718	0.249207
756.611	1.27055
759.504	1.01707
762.396	1.26292
765.289	0.790985
768.182	0.865143
771.075	1.32945
773.967	1.49214
776.86	0.941406
779.753	0.015594
782.645	0.506714
785.538	0.744003
788.431	0.060471
791.323	1.05638
794.216	2.03131
797.109	1.71533
800.002	2.20602
802.894	2.42127
805.787	2.20692
808.68	4.26987
811.572	3.38783
814.465	3.07956
817.358	3.16467
820.25	4.02074
823.143	4.11504
826.036	3.07843
828.929	1.77582
831.821	2.03261
834.714	2.5909
837.607	3.28805
840.5	3.09415
843.392	1.91238
846.285	2.00215
849.178	1.93074
852.07	1.36102
854.963	1.92288
857.856	1.13348
860.748	1.58118
863.641	1.24562
866.534	2.19893
869.427	0.600311
872.319	1.19847
875.212	0.055161
878.105	1.81053
880.997	0.451813
883.89	0.548523
886.783	0.114822
889.675	1.09175
892.568	0.848724
895.461	1.24162
898.354	2.20706
901.246	1.35359
904.139	2.02969
907.032	0.81694
909.924	1.98141
912.817	0.498398
915.71	1.63075
918.602	2.23976
921.495	0.686981
924.388	1.84694
927.28	1.09343
930.173	2.61696
933.066	1.90466
935.959	2.0399
938.851	1.64876
941.744	0.407639
944.637	0.958755
947.529	0.843872
950.422	0.312805
953.315	0.300858
956.207	0.085693
959.1	0.253815
961.993	1.40692
964.886	2.25041
967.778	2.01422
970.671	2.01555
973.564	2.81813
976.456	0.640579
979.349	3.01001
982.242	2.72752
985.135	2.6604
988.027	2.65343
990.92	1.59193
993.813	1.95959
996.705	3.46608
999.598	2.0968
1002.49	2.69751
1005.38	3.62793
1008.28	3.44716
1011.17	2.69914
1014.06	3.82309
1016.95	4.42633
1019.85	3.55193
1022.74	3.08038
1025.63	3.01251
1028.53	1.69827
1031.42	2.34677
1034.31	1.35667
1037.2	1.63149
1040.1	0.715164
1042.99	0.082901
1045.88	0.843506
1048.77	1.14587
1051.67	0.696136
1054.56	0.775772
1057.45	0.349533
1060.35	0.641068
1063.24	0.561417
1066.13	0.279831
1069.02	0.338013
1071.92	0.255188
1074.81	0.238159
1077.7	0.063049
1080.59	2.12274
1083.49	0.768387
1086.38	1.59258
1089.27	1.18925
1092.16	2.42416
1095.06	2.36542
1097.95	2.85295
1100.84	2.25693
1103.73	3.75237
1106.63	4.02212
1109.52	5.16737
1112.41	5.02451
1115.31	4.43796
1118.2	5.04922
1121.09	4.11587
1123.98	3.81389
1126.88	3.87405
1129.77	3.2963
1132.66	3.61682
1135.56	2.68301
1138.45	3.80609
1141.34	0.406509
1144.23	0.603699
1147.13	2.36417
1150.02	0.211441
1152.91	2.1002
1155.8	0.524857
1158.7	0.211044
1161.59	1.65738
1164.48	0.040222
1167.38	0.429047
1170.27	0.986435
1173.16	1.11836
1176.05	1.6989
1178.94	2.3394
1181.84	1.86177
1184.73	1.75619
1187.62	0.954773
1190.52	0.323578
1193.41	0.201645
1196.3	0.779144
1199.19	1.6049
1202.09	0.041977
1204.98	0.02063
1207.87	0.356461
1210.77	1.48518
1213.66	1.16942
1216.55	0.649963
1219.44	1.23454
1222.34	1.02054
1225.23	2.09633
1228.12	2.06554
1231.01	1.42612
1233.91	2.29546
1236.8	0.920166
1239.69	0.666077
1242.59	1.65988
1245.48	1.99783
1248.37	0.945358
1251.26	1.54387
1254.16	1.78291
1257.05	0.712967
1259.94	2.35413
1262.83	2.81119
1265.73	1.96573
1268.62	1.45138
1271.51	0.618927
1274.4	0.268265
1277.3	1.78009
1280.19	0.115601
1283.08	2.47418
1285.97	3.14989
1288.87	0.316696
1291.76	1.30608
1294.65	0.990829
1297.55	1.93314
1300.44	0.589294
