Measurement: Raman, 532 nm, unoriented, Raman Data Processed
Mineral: Steacyite
Rruff sample: R120037
Ideal chemistry: K_0.3_(Na,Ca)_2_Th^4+^Si_8_O_20_
Locality: Mont Saint-Hilaire, Rouville RCM, Montérégie, Québec, Canada
Source: Donald Doell
Description: Brown rectangular prism
Raman shift (cm-1)	intensity
200.731	0
203.623	1.21887
206.516	4.51282
209.409	7.78659
212.301	4.79532
215.194	6.3483
218.087	6.39349
220.98	2.77191
223.872	4.61002
226.765	4.66965
229.658	10.038
232.55	7.17847
235.443	3.7605
238.336	5.08374
241.228	6.98972
244.121	8.40411
247.014	6.74847
249.906	5.16031
252.799	6.03116
255.692	6.87622
258.585	4.04199
261.477	4.69586
264.37	2.9649
267.263	3.22479
270.155	4.5444
273.048	4.67481
275.941	2.29718
278.834	1.57916
281.726	0.264801
284.619	3.7348
287.512	4.41244
290.404	3.89557
293.297	2.90222
296.19	0.884125
299.082	0.098999
301.975	1.54126
304.868	0.850647
307.76	0.0354
310.653	1.66708
313.546	4.21991
316.439	0.692352
319.331	4.01923
322.224	3.44009
325.117	1.21606
328.009	2.56671
330.902	2.73267
333.795	5.78616
336.688	5.30463
339.58	1.26154
342.473	4.42233
345.366	2.46234
348.258	2.40988
351.151	3.72845
354.044	2.88419
356.936	4.22589
359.829	0.460327
362.722	1.36136
365.615	0.993195
368.507	0.102386
371.4	1.15021
374.293	2.67877
377.185	2.37717
380.078	2.60171
382.971	1.46347
385.863	0.509338
388.756	1.13754
391.649	1.72351
394.541	2.94907
397.434	4.43906
400.327	6.84613
403.22	2.04794
406.112	3.00082
409.005	3.39786
411.898	4.06204
414.79	6.15771
417.683	4.15683
420.576	2.62271
423.469	4.884
426.361	1.74634
429.254	4.11679
432.147	3.35117
435.039	3.61829
437.932	4.13061
440.825	3.73312
443.717	4.88663
446.61	7.12964
449.503	4.56735
452.396	3.6051
455.288	3.13037
458.181	3.99197
461.074	4.43088
463.966	2.98865
466.859	1.3992
469.752	6.32575
472.644	4.93179
475.537	5.03726
478.43	4.00223
481.322	3.53122
484.215	2.03479
487.108	2.22128
490.001	4.56274
492.893	3.76157
495.786	1.55902
498.679	3.01389
501.571	1.68778
504.464	2.07434
507.357	1.73218
510.25	1.56943
513.142	2.43698
516.035	0.252625
518.928	0.408813
521.82	1.79349
524.713	2.77618
527.606	3.44736
530.498	2.92993
533.391	5.43903
536.284	6.37137
539.177	3.13556
542.069	3.39917
544.962	1.20096
547.855	2.23828
550.747	2.88281
553.64	4.56632
556.533	3.29605
559.425	0.065887
562.318	3.25198
565.211	0.398407
568.104	2.75613
570.996	2.11285
573.889	2.6521
576.782	1.74716
579.674	0.192719
582.567	1.54517
585.46	4.14414
588.352	5.16797
591.245	0.80069
594.138	2.69818
597.03	4.38171
599.923	0.420715
602.816	3.8558
605.709	1.57919
608.601	3.44238
611.494	2.10535
614.387	0.274384
617.279	4.24377
620.172	4.98611
623.065	3.54825
625.957	1.50525
628.85	1.83075
631.743	3.49292
634.636	1.66873
637.528	1.15256
640.421	0.959869
643.314	0.538116
646.206	3.45218
649.099	3.15265
651.992	6.04608
654.885	6.31519
657.777	2.1886
660.67	3.91223
663.563	2.8382
666.455	3.25394
669.348	2.371
672.241	0.802063
675.133	5.59201
678.026	0.440918
680.919	0.769653
683.812	0.79422
686.704	1.94708
689.597	3.26581
692.49	5.30545
695.382	2.56732
698.275	4.24924
701.168	3.57211
704.06	2.61188
706.953	2.69
709.846	1.81891
712.739	0.932709
715.631	1.81415
718.524	0.293793
721.417	1.91281
724.309	3.23453
727.202	4.38043
730.095	3.41681
732.987	4.03153
735.88	3.0975
738.773	0.180298
741.665	1.17389
744.558	3.49777
747.451	2.91547
750.344	1.59772
753.236	2.38464
756.129	3.89569
759.022	0.639526
761.914	4.4913
764.807	0.027985
767.7	3.89673
770.592	0.036102
773.485	3.52432
776.378	2.41318
779.271	2.03653
782.163	2.64768
785.056	0.07428
787.949	0.773193
790.841	3.23334
793.734	3.99506
796.627	6.22394
799.519	4.73126
802.412	0.31311
805.305	1.53827
808.198	4.95703
811.09	1.72235
813.983	3.98053
816.876	2.20947
819.768	5.15637
822.661	3.50537
825.554	4.37457
828.447	2.21649
831.339	0.813416
834.232	0.758728
837.125	2.65894
840.017	1.21509
842.91	3.09491
845.803	5.02789
848.695	3.50958
851.588	1.54761
854.481	2.45355
857.374	1.34753
860.266	1.78876
863.159	2.00189
866.052	0.635193
868.944	1.12048
871.837	1.98523
874.73	1.78388
877.622	2.86859
880.515	0.427429
883.408	4.7124
886.301	3.42071
889.193	3.89551
892.086	0.567017
894.979	2.14154
897.871	1.99005
900.764	2.18262
903.657	2.33142
906.549	0.159363
909.442	4.36365
912.335	3.69098
915.227	1.94238
918.12	4.06097
921.013	1.81915
923.906	1.21796
926.798	3.16504
929.691	2.72644
932.584	0.788269
935.476	4.74683
938.369	4.95642
941.262	1.40283
944.154	4.07092
947.047	3.73077
949.94	4.10895
952.833	0.042969
955.725	0.299072
958.618	0.244141
961.511	1.20636
964.403	5.49304
967.296	2.9043
970.189	5.06909
973.082	7.21997
975.974	2.77655
978.867	5.20972
981.76	3.0899
984.652	2.37183
987.545	4.4458
990.438	2.23621
993.33	4.49029
996.223	3.13812
999.116	4.79907
1002.01	5.47864
1004.9	4.67865
1007.79	6.02618
1010.69	5.44757
1013.58	1.71106
1016.47	8.09802
1019.37	3.30158
1022.26	4.82593
1025.15	2.67487
1028.04	4.86707
1030.94	3.48718
1033.83	0.129944
1036.72	1.7926
1039.61	0.253235
1042.51	5.12891
1045.4	4.38934
1048.29	3.02399
1051.18	1.82251
1054.08	2.49731
1056.97	1.4613
1059.86	0.259705
1062.76	1.18347
1065.65	1.82025
1068.54	2.07752
1071.43	2.09985
1074.33	2.38946
1077.22	0.053284
1080.11	1.10712
1083	5.17523
1085.9	3.2052
1088.79	1.5719
1091.68	2.22168
1094.58	4.60608
1097.47	5.86188
1100.36	4.24676
1103.25	3.2337
1106.15	6.37134
1109.04	3.76593
1111.93	4.48816
1114.82	4.64252
1117.72	3.25665
1120.61	4.65796
1123.5	5.51245
1126.39	2.63086
1129.29	6.245
1132.18	4.36499
1135.07	7.146
1137.96	5.20526
1140.86	6.28912
1143.75	0.482544
1146.64	4.94214
1149.54	2.13715
1152.43	0.198608
1155.32	1.67908
1158.21	3.51221
1161.11	0.964783
1164	3.98395
1166.89	3.7265
1169.79	0.885376
1172.68	1.77032
1175.57	0.364136
1178.46	1.91657
1181.36	5.47339
1184.25	3.3255
1187.14	2.06775
1190.03	0.511536
1192.93	1.80603
1195.82	1.26868
1198.71	4.45197
1201.61	3.35156
1204.5	4.17987
1207.39	3.88898
1210.28	5.7807
1213.18	4.57782
1216.07	3.04376
1218.96	8.02185
1221.85	3.25226
1224.75	5.03803
1227.64	3.39807
1230.53	4.10516
1233.42	2.34967
1236.32	5.12482
1239.21	3.11798
1242.1	1.56683
1244.99	2.34137
1247.89	4.61047
1250.78	3.28998
1253.67	3.13184
1256.57	1.86163
1259.46	6.85065
1262.35	6.30841
1265.24	2.49115
1268.14	4.35449
1271.03	1.16846
1273.92	0.600952
1276.82	4.63159
1279.71	4.09857
1282.6	6.47729
1285.49	2.73639
1288.39	0.544739
1291.28	6.10553
1294.17	0.520447
1297.06	1.80078
1299.96	1.88977
