Measurement: Raman, 780 nm, unoriented, Raman Data Processed
Mineral: Steacyite
Rruff sample: R120037
Ideal chemistry: K_0.3_(Na,Ca)_2_Th^4+^Si_8_O_20_
Locality: Mont Saint-Hilaire, Rouville RCM, Montérégie, Québec, Canada
Source: Donald Doell
Description: Brown rectangular prism
Raman shift (cm-1)	intensity
100.842	5947.23
104.217	5925.23
107.591	5920.38
110.966	5927.32
114.341	5962.11
117.716	5975.47
121.091	6013.03
124.466	6028.6
127.84	6039.73
131.215	6064
134.59	6071.5
137.965	6095.05
141.34	6106.72
144.714	6146.53
148.089	6172.45
151.464	6196.4
154.839	6216.12
158.214	6266.83
161.589	6294.95
164.963	6348.95
168.338	6386.92
171.713	6420.39
175.088	6467.22
178.463	6498.23
181.838	6559.97
185.212	6638.01
188.587	6680.51
191.962	6730.27
195.337	6796.91
198.712	6853.09
202.086	6908.75
205.461	6993.18
208.836	7059.62
212.211	7116.28
215.586	7200.49
218.96	7268.27
222.335	7378.02
225.71	7490.3
229.085	7608.41
232.46	7692.51
235.834	7821.62
239.209	7939.56
242.584	8078.52
245.959	8184.69
249.334	8288.3
252.709	8395.18
256.083	8484.07
259.458	8559.75
262.833	8610.81
266.208	8636.23
269.583	8678.01
272.957	8672.53
276.332	8679.91
279.707	8701.31
283.082	8704.02
286.457	8704.61
289.832	8747.48
293.206	8765.59
296.581	8804.2
299.956	8873.55
303.331	8919.11
306.706	8983.73
310.08	9031.22
313.455	9062.2
316.83	9092.01
320.205	9127.12
323.58	9137.82
326.954	9180.5
330.329	9199.07
333.704	9253.1
337.079	9331.06
340.454	9356.82
343.829	9435.98
347.203	9552.47
350.578	9643.36
353.953	9803.91
357.328	9999.5
360.703	10229.1
364.077	10475
367.452	10739.5
370.827	11043.4
374.202	11304
377.577	11612.8
380.952	11939.8
384.326	12235.2
387.701	12495.8
391.076	12660.7
394.451	12794.5
397.826	12791.3
401.2	12771.6
404.575	12651.8
407.95	12444.4
411.325	12219.3
414.7	11968
418.075	11684.2
421.449	11503.9
424.824	11290.2
428.199	11111.9
431.574	10989.8
434.949	10897.6
438.323	10830
441.698	10789.9
445.073	10768.8
448.448	10760.7
451.823	10810.1
455.197	10838.8
458.572	10888.9
461.947	10907.4
465.322	10927.3
468.697	10936.2
472.072	10930.4
475.446	10871
478.821	10805.3
482.196	10722.5
485.571	10628.4
488.946	10477.3
492.32	10347
495.695	10179.6
499.07	10015.8
502.445	9889.32
505.82	9742.06
509.195	9613.51
512.569	9500.07
515.944	9400.22
519.319	9307.54
522.694	9221.33
526.068	9142.85
529.443	9048.05
532.818	8982.12
536.193	8910.43
539.568	8863.8
542.943	8822.25
546.317	8796.17
549.692	8751.37
553.067	8709.42
556.442	8698.97
559.817	8679.47
563.192	8651.13
566.566	8637.98
569.941	8622.65
573.316	8611.99
576.691	8637.86
580.066	8662.7
583.44	8682.67
586.815	8715.81
590.19	8740.45
593.565	8741.51
596.94	8783.05
600.314	8789.43
603.689	8856.9
607.064	8875.27
610.439	8917.99
613.814	8941.15
617.188	8948.9
620.563	8975.6
623.938	8979.11
627.313	8975.15
630.688	8938.35
634.063	8914.38
637.437	8863.09
640.812	8804.18
644.187	8722.11
647.562	8631.45
650.937	8547.18
654.312	8429.78
657.686	8356.86
661.061	8218.45
664.436	8120.32
667.811	8032.48
671.186	7957.66
674.56	7847.98
677.935	7769.67
681.31	7688.67
684.685	7614.21
688.06	7556.59
691.434	7485.69
694.809	7439.63
698.184	7399.21
701.559	7336.49
704.934	7287.66
708.308	7250.22
711.683	7205.29
715.058	7181.51
718.433	7154.21
721.808	7099.77
725.183	7086.83
728.557	7053.58
731.932	7037.6
735.307	6997.44
738.682	6968.19
742.057	6940.44
745.432	6904.77
748.806	6893.1
752.181	6843.78
755.556	6814.13
758.931	6769.09
762.306	6763.67
765.68	6739.63
769.055	6714.91
772.43	6679.23
775.805	6644.89
779.18	6608.78
782.554	6583.78
785.929	6554.62
789.304	6531.53
792.679	6513.45
796.054	6478.18
799.428	6437.6
802.803	6388.09
806.178	6370.96
809.553	6359.34
812.928	6325.55
816.303	6308.7
819.677	6292.45
823.052	6261.92
826.427	6246.32
829.802	6230.67
833.177	6211.59
836.552	6186.31
839.926	6165.68
843.301	6160.88
846.676	6143.08
850.051	6122.16
853.426	6103.06
856.8	6086.94
860.175	6068.07
863.55	6075.6
866.925	6055.87
870.3	6044.87
873.674	6025.98
877.049	6022.25
880.424	6018.84
883.799	6009.11
887.174	6003.69
890.548	6015.67
893.923	5997.32
897.298	5981.41
900.673	5993.83
904.048	5967.35
907.423	5992.61
910.797	5971.6
914.172	5988.64
917.547	6002.39
920.922	5992.88
924.297	5983.6
927.671	5985.8
931.046	6005.29
934.421	5992.42
937.796	5968.73
941.171	5974.91
944.545	5976.23
947.92	5970.07
951.295	5973.75
954.67	5955.19
958.045	5929.37
961.42	5937.89
964.794	5917.98
968.169	5912.54
971.544	5893.13
974.919	5873.02
978.294	5870.85
981.668	5869.83
985.043	5845.62
988.418	5864.15
991.793	5844.16
995.168	5832.99
998.543	5831.5
1001.92	5822.76
1005.29	5826.9
1008.67	5829.31
1012.04	5810.31
1015.42	5814.96
1018.79	5817.44
1022.17	5819.28
1025.54	5836.69
1028.92	5822.77
1032.29	5813.87
1035.67	5837.46
1039.04	5832.53
1042.41	5838.89
1045.79	5837.83
1049.16	5842
1052.54	5854.58
1055.91	5886.55
1059.29	5884.63
1062.66	5891.95
1066.04	5899.49
1069.41	5914.06
1072.79	5925.75
1076.16	5930.74
1079.54	5946.64
1082.91	5951.26
1086.29	5987.05
1089.66	6018.07
1093.04	6040.31
1096.41	6028.41
1099.79	6042.74
1103.16	6076.5
1106.54	6097.29
1109.91	6148.69
1113.29	6149.07
1116.66	6187.88
1120.04	6217.35
1123.41	6276.83
1126.79	6309.9
1130.16	6349.52
1133.54	6381.2
1136.91	6428.83
1140.29	6499.01
1143.66	6549.56
1147.03	6589.05
1150.41	6660.85
1153.78	6726.11
1157.16	6809.25
1160.53	6872.39
1163.91	6961.4
1167.28	7054.45
1170.66	7161.81
1174.03	7272.75
1177.41	7373.51
1180.78	7482.73
1184.16	7598.52
1187.53	7725.61
1190.91	7865.91
1194.28	8030.18
1197.66	8222.87
1201.03	8417.35
1204.41	8603.19
1207.78	8779.13
1211.16	9024.25
1214.53	9272.25
1217.91	9516.09
1221.28	9809.71
1224.65	10125.5
1228.03	10404
1231.4	10771.4
1234.78	11146.4
1238.15	11554
1241.53	11941.3
1244.9	12370.2
1248.28	12809.6
1251.65	13202
1255.03	13562.6
1258.4	13793.4
1261.78	13936.8
1265.15	14023
1268.53	13994.5
1271.9	13850.2
1275.28	13645.6
1278.65	13382.2
1282.03	13103.3
