Measurement: Raman, 780 nm, unoriented, Raman Data RAW
Mineral: Steenstrupine-(Ce)
Rruff sample: R100205
Ideal chemistry: Na_14_Ce^3+^_6_Mn^2+^Mn^3+^Fe^3+^_2_Zr^4+^(P^5+^O_4_)_7_Si_12_O_36_(OH)_2_3H_2_O
Locality: Mont Saint-Hilaire, Rouville County, Quebec, Canada
Source: Royal Ontario Museum
Description: Transparent brown blocky crystals on a white sodalite matrix. Our sample is twinned. If we ignored the twin, then we get the reported hexagonal cell of Moore and Shen (1983).
Raman shift (cm-1)	intensity
107.48	54086.1
110.854	54210.9
114.229	54369
117.604	54344.8
120.979	54395.7
124.354	54476.1
127.728	54542.5
131.103	54562.7
134.478	54575
137.853	54770.7
141.228	54831.6
144.602	54909.3
147.977	54909.9
151.352	54903.7
154.727	55019.7
158.102	55117.1
161.477	55153.8
164.851	55362.3
168.226	55370.1
171.601	55419.5
174.976	55328.9
178.351	55339.6
181.726	55424.9
185.1	55505.1
188.475	55472.4
191.85	55427.4
195.225	55379.7
198.6	55263.3
201.974	55227.5
205.349	55143
208.724	55078.5
212.099	54959.1
215.474	54811
218.848	54667.5
222.223	54595.4
225.598	54478.5
228.973	54320.8
232.348	54172.8
235.722	54047.6
239.097	54057.8
242.472	53889
245.847	53771.6
249.222	53670.8
252.597	53522.8
255.971	53389.7
259.346	53333.6
262.721	53335.2
266.096	53223.2
269.471	53244
272.846	53152.4
276.22	53192.4
279.595	53264.8
282.97	53239.4
286.345	53123.1
289.719	53340.5
293.094	53354.9
296.469	53381.3
299.844	53493.4
303.219	53613
306.594	53703.4
309.968	53660.5
313.343	53512.4
316.718	53504.4
320.093	53293
323.468	53160.3
326.842	52966.3
330.217	52657.8
333.592	52412.6
336.967	52554
340.342	52507.5
343.717	52524.3
347.091	52585.9
350.466	52528.3
353.841	52639.8
357.216	52860
360.591	52918.6
363.965	52826.4
367.34	52932.9
370.715	53076.3
374.09	52954.9
377.465	52883.8
380.839	52954.3
384.214	52859.8
387.589	52897.4
390.964	52754.2
394.339	52913.1
397.714	52828.1
401.088	52841.6
404.463	52754.6
407.838	52607.5
411.213	52715.2
414.588	52747.9
417.962	52715.7
421.337	52914.3
424.712	52880.8
428.087	52932.5
431.462	53094.9
434.837	53221
438.211	53403.4
441.586	53544.9
444.961	53711.4
448.336	53965.1
451.711	54275.4
455.085	54401.6
458.46	54519.6
461.835	54493.3
465.21	54325.7
468.585	54198.6
471.959	54019.4
475.334	53740.4
478.709	53437
482.084	53330.8
485.459	53089.3
488.834	52905
492.208	52621.2
495.583	52472.4
498.958	52127.4
502.333	51908.9
505.708	51630.3
509.082	51380.9
512.457	51057.2
515.832	50870.2
519.207	50488.3
522.582	50297.8
525.957	49964.6
529.331	49726.8
532.706	49313.4
536.081	49123.8
539.456	48894.1
542.831	48603.4
546.205	48393.5
549.58	48136.4
552.955	48066
556.33	47800.8
559.705	47673.8
563.08	47407.5
566.454	47194.8
569.829	47134.1
573.204	46895.1
576.579	46887.1
579.954	46671.3
583.328	46516.2
586.703	46309.9
590.078	46186.4
593.453	46072.3
596.828	46046.1
600.202	45710.5
603.577	45507.9
606.952	45193.3
610.327	45106.2
613.702	44847.8
617.077	44603.1
620.451	44343.9
623.826	44176.4
627.201	43932.7
630.576	43644.5
633.951	43565.5
637.325	43252.4
640.7	43056.1
644.075	42741.5
647.45	42546.4
650.825	42432.4
654.199	42167.9
657.574	41989
660.949	41836.3
664.324	41571.7
667.699	41404.4
671.073	41137.1
674.448	40955.7
677.823	40773.2
681.198	40585.9
684.573	40419.7
687.948	40260
691.322	40101
694.697	39818.2
698.072	39660.2
701.447	39602.8
704.822	39340.3
708.197	39241.8
711.571	39070.3
714.946	38903.7
718.321	38764.3
721.696	38565.6
725.071	38424.3
728.445	38201
731.82	38108.9
735.195	37815
738.57	37805.5
741.945	37650.5
745.319	37560.9
748.694	37474.7
752.069	37247.6
755.444	37097.9
758.819	36968.1
762.193	36958.9
765.568	36872.7
768.943	36737.8
772.318	36732
775.693	36595.6
779.068	36486.8
782.442	36374.3
785.817	36261
789.192	36221.5
792.567	36258.4
795.942	36162.6
799.317	36012.8
802.691	35964.2
806.066	36047.1
809.441	35979.9
812.816	35851.8
816.191	35917.2
819.565	35951.6
822.94	35964
826.315	35783
829.69	35827.9
833.065	35764.4
836.439	35794
839.814	35804.2
843.189	35883.8
846.564	35913.2
849.939	35914.4
853.313	35899.6
856.688	35896.9
860.063	35840.2
863.438	35862.6
866.813	35756
870.188	35658.8
873.562	35636.5
876.937	35566.6
880.312	35457.6
883.687	35437.6
887.062	35415.1
890.437	35285.9
893.811	35302.4
897.186	35155.9
900.561	35153.4
903.936	35044.2
907.311	35167.4
910.685	35081.9
914.06	35064.7
917.435	35142.3
920.81	35004.3
924.185	34964.2
927.559	34971.1
930.934	35060.9
934.309	34924
937.684	34943.9
941.059	35103.9
944.433	35191.6
947.808	35322.2
951.183	35402.1
954.558	35434.8
957.933	35213
961.308	35073.9
964.682	34873.8
968.057	34986.4
971.432	34857.5
974.807	34877.3
978.182	34911
981.557	35107
984.931	35134.1
988.306	35279.7
991.681	35221.6
995.056	35360.5
998.431	35420.8
1001.8	35521.5
1005.18	35600.7
1008.55	35697.3
1011.93	35726.8
1015.3	35807.2
1018.68	35818.4
1022.05	35911.6
1025.43	36062.3
1028.8	36205.5
1032.18	36271.2
1035.55	36482.3
1038.93	36581.8
1042.3	36714.3
1045.68	36856.3
1049.05	37017
1052.43	37108.4
1055.8	37324.2
1059.18	37585.3
1062.55	37749.8
1065.93	38040.3
1069.3	38205.3
1072.68	38400.7
1076.05	38674.3
1079.43	38851.8
1082.8	39149.8
1086.18	39471.9
1089.55	39891.3
1092.92	40276.9
1096.3	40406.2
1099.67	40756.7
1103.05	41152.9
1106.42	41561.3
1109.8	42150.4
1113.17	42395.1
1116.55	42942.3
1119.92	43454.1
1123.3	44160.1
1126.67	44745.4
1130.05	45410.2
1133.42	46074.5
1136.8	46810.6
1140.17	47627.1
1143.55	48252.9
1146.92	49214.8
1150.3	49889.5
1153.67	50933.7
1157.05	51690.4
1160.42	52738.1
1163.8	53742.8
1167.17	54907.4
1170.55	56019
1173.92	57344.3
1177.3	58548.4
1180.67	59898.1
1184.05	61147.2
1187.42	62637.4
1190.8	64439.9
1194.17	66275.3
1197.55	68007
1200.92	69870.4
1204.29	72007.1
1207.67	74170.7
1211.04	76580.1
1214.42	78931.5
1217.79	81536.7
1221.17	84232.4
1224.54	87236.8
1227.92	90159.6
1231.29	93099
1234.67	96244.1
1238.04	98978
1241.42	101515
1244.79	104044
1248.17	106243
1251.54	108208
1254.92	109934
1258.29	111612
1261.67	113085
1265.04	114409
1268.42	115943
1271.79	117504
1275.16	118766
1278.54	120276
1281.91	121827
