Measurement: Raman, 532 nm, unoriented, Raman Data Processed
Mineral: Stephanite
Rruff sample: R050309
Ideal chemistry: Ag^1+^_5_Sb^3+^S^2-^_4_
Locality: Sonora, Mexico
Source: Eugene Schlepp
Description: Black fragment in quartz, associated with pyrargyrite. Electron microscope image shows two fine-scale phases.
Measured chemistry: Ag_5.22_(Sb_0.93_As_0.10_)_Î£=1.03_S_4.00_
Raman shift (cm-1)	intensity
130.441	0
133.333	0.897427
136.226	1.67309
139.119	1.05938
142.012	1.5955
144.904	1.47218
147.797	1.48692
150.69	0.055587
153.582	0.618314
156.475	0.296593
159.368	0.694057
162.26	1.2811
165.153	1.02536
168.046	1.78091
170.939	1.01723
173.831	1.48985
176.724	0.954214
179.617	1.48899
182.509	0.835297
185.402	1.34602
188.295	1.14801
191.187	1.29415
194.08	0.762525
196.973	1.52127
199.865	0.982444
202.758	1.573
205.651	1.52847
208.544	2.46286
211.436	1.97283
214.329	1.40978
217.222	0.55091
220.114	1.70832
223.007	0.383792
225.9	1.66522
228.792	2.13382
231.685	1.96443
234.578	1.84659
237.471	1.97699
240.363	1.72826
243.256	1.54382
246.149	1.48961
249.041	1.35215
251.934	0.871442
254.827	0.47975
257.719	1.21283
260.612	1.43651
263.505	0.845167
266.398	1.43293
269.29	0.963102
272.183	1.65316
275.076	1.31987
277.968	0.588641
280.861	0.317639
283.754	0.176059
286.647	1.06226
289.539	0.206426
292.432	0.467358
295.325	0.012592
298.217	0.638809
301.11	0.16238
304.003	1.13761
306.895	0.521994
309.788	0.275548
312.681	1.14592
315.574	0.296163
318.466	0.625402
321.359	0.277555
324.252	0.676518
327.144	0.240126
330.037	1.06086
332.93	1.49824
335.822	2.08518
338.715	1.659
341.608	1.39463
344.5	0.46485
347.393	1.19831
350.286	0.477717
353.179	0.529285
356.071	0.886148
358.964	0.978627
361.857	0.941102
364.75	0.793352
367.642	0.87166
370.535	0.031942
373.428	1.14112
376.32	1.0517
379.213	0.766386
382.106	0.527425
384.998	0.708915
387.891	0.712356
390.784	0.811239
393.676	1.04262
396.569	0.078392
399.462	0.912793
402.355	0.833498
405.247	0.668046
408.14	1.2955
411.033	1.22987
413.925	0.723012
416.818	1.24064
419.711	0.351992
422.603	0.846886
425.496	1.45069
428.389	1.21787
431.282	0.828213
434.174	0.715298
437.067	0.951133
439.96	1.02309
442.852	0.868329
445.745	0.073948
448.638	0.906166
451.531	0.353864
454.423	0.301732
457.316	0.249666
460.209	0.483249
463.101	0.700284
465.994	1.09656
468.887	0.003128
471.779	0.760762
474.672	0.589321
477.565	0.355449
480.457	0.176948
483.35	0.947375
486.243	0.161173
489.136	0.954082
492.028	0.342002
494.921	1.06141
497.814	0.241085
500.706	0.594774
503.599	0.333617
506.492	0.801423
509.385	0.858004
512.277	0.131932
515.17	0.460818
518.063	0.183796
520.955	0.391565
523.848	0.787565
526.741	0.333781
529.633	0.105457
532.526	0.537184
535.419	1.086
538.312	0.481667
541.204	0.565674
544.097	0.385301
546.99	0.461985
549.882	0.246154
552.775	0.000169
555.668	0.462261
558.56	0.071883
561.453	0.328004
564.346	0.387819
567.239	0.162029
570.131	0.807641
573.024	0.389752
575.917	0.830831
578.809	0.483648
581.702	0.188207
584.595	0.053113
587.487	0.055773
590.38	0.941553
593.273	0.513575
596.165	0.27215
599.058	1.05193
601.951	0.411943
604.844	1.01049
607.736	0.591725
610.629	0.026816
613.522	0.580309
616.414	0.583207
619.307	0.760515
622.2	0.596678
625.092	1.07781
627.985	0.394475
630.878	0.489813
633.771	0.635581
636.663	0.075318
639.556	0.286502
642.449	0.402811
645.341	0.082901
648.234	0.127904
651.127	0.309365
654.019	0.622454
656.912	0.617004
659.805	0.448861
662.698	0.847197
665.59	0.801141
668.483	0.074812
671.376	0.88858
674.268	0.399621
677.161	0.72024
680.054	0.989975
682.947	0.38342
685.839	0.607269
688.732	0.709405
691.625	0.382636
694.517	0.324873
697.41	0.929883
700.303	0.287234
703.195	0.732738
706.088	0.285898
708.981	0.521047
711.874	0.30189
714.766	1.00542
717.659	0.432158
720.552	1.0389
723.444	0.883886
726.337	0.826612
729.23	0.653636
732.122	0.002656
735.015	0.086648
737.908	0.392021
740.801	0.130092
743.693	0.357186
746.586	1.1252
749.479	1.114
752.371	0.521396
755.264	0.91219
758.157	0.220118
761.049	0.069505
763.942	0.536416
766.835	0.909304
769.727	0.669751
772.62	0.109132
775.513	0.065066
778.406	0.422492
781.298	0.32164
784.191	0.144385
787.084	0.903749
789.976	1.17244
792.869	0.728968
795.762	0.98172
798.654	0.411874
801.547	0.280791
804.44	0.315832
807.333	0.539773
810.225	0.148103
813.118	1.15916
816.011	0.399244
818.903	0.433958
821.796	0.946577
824.689	0.076045
827.582	0.927876
830.474	0.428789
833.367	0.567568
836.26	0.033609
839.152	0.685761
842.045	0.381126
844.938	0.177567
847.83	0.380795
850.723	0.3896
853.616	0.342794
856.509	1.26602
859.401	0.813215
862.294	0.333207
865.187	0.899092
868.079	0.747086
870.972	0.048477
873.865	0.323758
876.757	0.788539
879.65	0.183988
882.543	0.406111
885.436	0.396501
888.328	0.138976
891.221	1.5245
894.114	0.768601
897.006	0.736221
899.899	0.850294
902.792	0.614936
905.684	0.268147
908.577	0.548136
911.47	1.04197
914.362	0.701207
917.255	0.232618
920.148	0.621871
923.041	0.845675
925.933	0.337672
928.826	0.179662
931.719	0.854218
934.611	1.06118
937.504	0.146478
940.397	0.682481
943.289	0.916252
946.182	0.343338
949.075	0.426713
951.968	0.807761
954.86	0.682344
957.753	0.735489
960.646	0.054667
963.538	0.373793
966.431	0.232341
969.324	0.417253
972.216	0.837039
975.109	0.837562
978.002	0.278829
980.895	0.662424
983.787	0.610442
986.68	0.052329
989.573	0.055687
992.465	0.327739
995.358	0.216624
998.251	0.440715
1001.14	0.199294
1004.04	0.637052
1006.93	0.040479
1009.82	0.355556
1012.71	0.464675
1015.61	0.49401
1018.5	0.461085
1021.39	0.752045
1024.29	0.105691
1027.18	0.298996
1030.07	1.17986
1032.96	0.309865
1035.86	0.574025
1038.75	0.891189
1041.64	0.645912
1044.53	0.768338
1047.43	0.191272
1050.32	0.723099
1053.21	1.06797
1056.11	0.677321
1059	1.1001
1061.89	0.83268
1064.78	0.795912
1067.68	0.549145
1070.57	0.394188
1073.46	1.20739
1076.35	0.949101
1079.25	0.245846
1082.14	0.620214
1085.03	0.882747
1087.92	1.08212
1090.82	0.796887
1093.71	1.23216
1096.6	1.47975
1099.49	0.482403
1102.39	1.00679
1105.28	1.09054
1108.17	1.26877
1111.07	0.327415
1113.96	0.954272
1116.85	0.893777
1119.74	0.602948
1122.64	0.003761
1125.53	1.12608
1128.42	0.939636
1131.32	0.559928
1134.21	0.781943
1137.1	0.870233
1139.99	1.22386
1142.89	0.152916
1145.78	1.18627
1148.67	0.87676
1151.56	0.856869
1154.46	0.876596
1157.35	0.778241
1160.24	0.134986
1163.13	0.560399
1166.03	0.603243
1168.92	0.185933
1171.81	0.968068
1174.71	0.880088
1177.6	0.564824
1180.49	0.049646
1183.38	0.232521
1186.28	1.1561
1189.17	0.768243
1192.06	0.037834
1194.95	0.703149
1197.85	0.03194
1200.74	1.16728
1203.63	1.31259
1206.53	0.018657
1209.42	0.353689
1212.31	0.696963
1215.2	0.331636
1218.1	0.582321
1220.99	0.696573
1223.88	0.702496
1226.77	0.58211
1229.67	0.426636
1232.56	0.887897
1235.45	0.742744
1238.35	0.324929
1241.24	1.44579
1244.13	0.692652
1247.02	0.373165
1249.92	1.01961
1252.81	0.673102
1255.7	1.39762
1258.59	0.881216
1261.49	0.467506
1264.38	0.605141
1267.27	0.718644
1270.16	0.785973
1273.06	0.395364
1275.95	0.003298
