Measurement: Raman, 532 nm, unoriented, Raman Data Processed
Mineral: Stephanite
Rruff sample: R050143
Ideal chemistry: Ag^1+^_5_Sb^3+^S^2-^_4_
Locality: Proano mine, Fresnillo, Zacatecas, Mexico
Source: Dave Bunk Minerals
Description: Group of black pseudohexagonal crystals
Measured chemistry: Ag_5.00_Sb_1.00_S_4.00_
Raman shift (cm-1)	intensity
110.915	0
114.29	103.287
117.665	785.614
121.04	551.613
124.414	368.693
127.789	177.458
131.164	142.013
134.539	240.891
137.914	297.687
141.288	304.101
144.663	260.374
148.038	247.594
151.413	179.116
154.788	190.366
158.163	198.075
161.538	176.304
164.912	216.156
168.287	210.512
171.662	312.063
175.037	500.497
178.412	1278.49
181.786	3064.02
185.161	5303.51
188.536	8364.16
191.911	2612.07
195.286	770.615
198.661	299.214
202.035	176.679
205.41	153.633
208.785	114.914
212.16	115.684
215.535	43.185
218.909	64.375
222.284	16.495
225.659	52.622
229.034	202.298
232.409	425.965
235.783	943.965
239.158	2302.26
242.533	5050.55
245.908	8809.02
249.283	14127.4
252.658	11268.1
256.032	4012.55
259.407	1799.4
262.782	985.362
266.157	598.125
269.532	323.834
272.906	223.405
276.281	144.972
279.656	73.469
283.031	66.769
286.406	102.737
289.781	155.198
293.155	89.301
296.53	51.198
299.905	25.044
303.28	35.901
306.655	1.561
310.03	40.545
313.404	9.414
316.779	29.377
320.154	73.478
323.529	85.61
326.904	47.949
330.278	56.086
333.653	82.615
337.028	139.812
340.403	146.177
343.778	254.792
347.152	294.708
350.527	327.287
353.902	349.208
357.277	396.817
360.652	451.167
364.027	640.504
367.401	854.265
370.776	889.479
374.151	662.068
377.526	366.5
380.901	187.774
384.276	113.259
387.65	59.439
391.025	9.599
394.4	16.543
397.775	0.052
401.15	26.845
404.524	49.016
407.899	8.98
411.274	23.064
414.649	42.541
418.024	65.676
421.398	45.085
424.773	123.272
428.148	206.83
431.523	280.418
434.898	545.186
438.273	928.417
441.647	1523.09
445.022	2086.41
448.397	2364.66
451.772	1738.51
455.147	1011.3
458.522	599.71
461.896	414.279
465.271	251.081
468.646	242.662
472.021	184.466
475.396	125.798
478.77	120.327
482.145	84.219
485.52	123.574
488.895	149.718
492.27	93.036
495.645	111.354
499.019	9.438
502.394	89.932
505.769	16.877
509.144	62.332
512.519	43.536
515.893	35.258
519.268	6.307
522.643	89.09
526.018	64.654
529.393	32.335
532.768	23.766
536.142	85.974
539.517	65.392
542.892	35.896
546.267	104.037
549.642	18.683
553.016	29.885
556.391	62.343
559.766	3.592
563.141	5.258
566.516	78.924
569.891	8.243
573.265	86.337
576.64	48.597
580.015	25.615
583.39	1.439
586.765	49.081
590.14	56.138
593.514	47.002
596.889	66.679
600.264	1.118
603.639	9.447
607.013	2.552
610.388	14.321
613.763	57.875
617.138	43.836
620.513	66.618
623.888	73.491
627.263	67.124
630.637	54.174
634.012	31.08
637.387	33.72
640.762	7.678
644.137	0.628
647.511	5.253
650.886	36.011
654.261	27.689
657.636	42.394
661.011	20.008
664.385	40.318
667.76	30.22
671.135	75.552
674.51	99.614
677.885	88.079
681.26	92.452
684.634	115.001
688.009	117.178
691.384	130.66
694.759	283.481
698.134	273.158
701.508	291.998
704.883	320.996
708.258	290.253
711.633	189.579
715.008	152.931
718.383	46.781
721.757	50.147
725.132	29.634
728.507	65.542
731.882	40.23
735.257	0.016
738.631	87.225
742.006	17.479
745.381	61.486
748.756	1.658
752.131	39.418
755.506	83.09
758.88	85.965
762.255	12.996
765.63	8.409
769.005	28.875
772.38	71.688
775.755	23.509
779.129	50.532
782.504	67.223
785.879	84.952
789.254	61.802
792.629	60.127
796.003	49.838
799.378	20.135
802.753	9.982
806.128	46.874
809.503	36.589
812.878	65.498
816.252	24.63
819.627	67.833
823.002	85.938
826.377	103.777
829.752	31.165
833.127	58.136
836.501	57.165
839.876	74.519
843.251	59.899
846.626	68.673
850	14.16
853.375	19.271
856.75	18.129
860.125	10.372
863.5	12.213
866.875	18.193
870.25	45.167
873.624	71.811
876.999	23.109
880.374	42.272
883.749	27.886
887.123	49.107
890.498	14.693
893.873	59.689
897.248	26.605
900.623	46.076
903.998	37.399
907.372	46.992
910.747	23.817
914.122	29.578
917.497	50.153
920.872	87.069
924.247	46.239
927.621	53.167
930.996	34.897
934.371	18.982
937.746	45.694
941.121	18.286
944.495	76.921
947.87	75.507
951.245	89.93
954.62	76.856
957.995	99.794
961.37	63.774
964.744	79.206
968.119	14.475
971.494	36.992
974.869	21.246
978.244	46.36
981.619	24.157
984.993	16.05
988.368	67.089
991.743	81.244
995.118	91.337
998.493	74.668
1001.87	62.62
1005.24	58.919
1008.62	34.573
1011.99	26.695
1015.37	31.743
1018.74	38.913
1022.12	42.77
1025.49	42.584
1028.87	54.654
1032.24	72.803
1035.62	48.174
1038.99	59.093
1042.37	78.176
1045.74	37.752
1049.12	16.258
1052.49	83.879
1055.87	46.357
1059.24	56.269
1062.61	23.564
1065.99	134.527
1069.36	95.478
1072.74	139.686
1076.11	62.645
1079.49	64.863
1082.86	63.376
1086.24	74.105
1089.61	13.845
1092.99	29.924
1096.36	82.588
1099.74	61.645
1103.11	101.29
1106.49	29.974
1109.86	155.099
1113.24	139.608
1116.61	119.633
1119.99	69.2
1123.36	5.181
1126.74	88.118
1130.11	60.984
1133.48	26.32
1136.86	46.061
1140.23	97.507
1143.61	79.444
1146.98	107.907
1150.36	53.56
1153.73	16.261
1157.11	142.219
1160.48	71.787
1163.86	41.582
1167.23	42.993
1170.61	51.963
1173.98	2.579
1177.36	48.965
1180.73	65.564
1184.11	112.022
1187.48	101.668
1190.86	27.479
1194.23	29.773
1197.61	6.161
1200.98	48.39
1204.36	89.578
1207.73	47.737
1211.11	86.902
1214.48	104.121
1217.86	126.905
1221.23	72.568
1224.61	75.03
1227.98	39.628
1231.36	34.271
1234.73	65.154
1238.11	101.149
1241.48	167.635
1244.85	105.637
1248.23	85.611
1251.6	93.788
1254.98	117.641
1258.35	93.507
1261.73	34.792
1265.1	47.98
1268.48	61.675
1271.85	163.575
1275.23	110.454
1278.6	191.079
1281.98	111.123
1285.35	207.67
1288.73	190.602
1292.1	59.993
1295.48	34.553
1298.85	18.737
