Measurement: Raman, 785 nm, unoriented, Raman Data Processed
Mineral: Stephanite
Rruff sample: R050143
Ideal chemistry: Ag^1+^_5_Sb^3+^S^2-^_4_
Locality: Proano mine, Fresnillo, Zacatecas, Mexico
Source: Dave Bunk Minerals
Description: Group of black pseudohexagonal crystals
Measured chemistry: Ag_5.00_Sb_1.00_S_4.00_
Raman shift (cm-1)	intensity
162.508	0
165.4	37.781
168.293	70.809
171.186	98.468
174.078	151.291
176.971	152.322
179.864	165.247
182.757	163.298
185.649	145.061
188.542	147.556
191.435	112.166
194.327	99.432
197.22	105.939
200.113	113.302
203.005	103.262
205.898	123.504
208.791	111.286
211.684	120.009
214.576	105.524
217.469	130.017
220.362	135.141
223.254	136.713
226.147	131.925
229.04	130.974
231.932	146.353
234.825	142.053
237.718	136.228
240.611	146.993
243.503	151.164
246.396	138.5
249.289	132.578
252.181	121.45
255.074	128.407
257.967	119.085
260.859	116.499
263.752	118.284
266.645	106.179
269.538	87.83
272.43	91.395
275.323	93.536
278.216	89.836
281.108	104.354
284.001	103.751
286.894	109.341
289.786	125.702
292.679	190.454
295.572	224.85
298.465	278.534
301.357	319.766
304.25	308.659
307.143	308.448
310.035	330.29
312.928	416.948
315.821	648.007
318.714	927.848
321.606	1186.34
324.499	1082.19
327.392	903.564
330.284	744.441
333.177	496.003
336.07	327.202
338.962	269.458
341.855	203.389
344.748	96.433
347.641	47.532
350.533	24.494
353.426	7.001
356.319	0.444
359.211	2.019
362.104	1.673
364.997	13.296
367.889	4.095
370.782	6.383
373.675	8.03
376.568	11.279
379.46	8.177
382.353	5.019
385.246	12.938
388.138	14.384
391.031	15.472
393.924	11.771
396.816	3.36
399.709	14.819
402.602	14.514
405.495	0.17
408.387	2.866
411.28	15.373
414.173	4.978
417.065	5.146
419.958	0.666
422.851	1.601
425.743	10.343
428.636	1.552
431.529	4.967
434.422	7.85
437.314	6.083
440.207	5.725
443.1	2.056
445.992	3.219
448.885	0.897
451.778	5.988
454.67	2.062
457.563	2.999
460.456	2.145
463.349	1.794
466.241	5.027
469.134	1.596
472.027	1.128
474.919	1.807
477.812	1.033
480.705	1.707
483.597	2.069
486.49	7.007
489.383	10.992
492.276	3.634
495.168	6.94
498.061	7.223
500.954	0.656
503.846	2.96
506.739	11.484
509.632	8.391
512.524	8.587
515.417	9.301
518.31	3.223
521.203	1.324
524.095	9.806
526.988	0.877
529.881	2.596
532.773	0.132
535.666	5.543
538.559	6.499
541.451	11.167
544.344	1.541
547.237	8.448
550.13	10.84
553.022	7.265
555.915	7.803
558.808	3.149
561.7	8.057
564.593	4.25
567.486	2.095
570.378	1.643
573.271	11.566
576.164	5.803
579.057	4.101
581.949	8.703
584.842	11.488
587.735	11.949
590.627	7.416
593.52	6.626
596.413	15.952
599.305	7.581
602.198	10.192
605.091	0.564
607.984	4.936
610.876	4.319
613.769	7.339
616.662	16.679
619.554	9.236
622.447	4.607
625.34	2.778
628.232	8.971
631.125	8.152
634.018	14.944
636.911	12.505
639.803	9.031
642.696	9.742
645.589	10.388
648.481	6.463
651.374	8.179
654.267	1.634
657.159	2.698
660.052	11.698
662.945	3.702
665.838	12.703
668.73	14.552
671.623	10.112
674.516	11.085
677.408	15.801
680.301	17.415
683.194	8.221
686.086	3.184
688.979	12.306
691.872	3.174
694.765	10.66
697.657	7.813
700.55	0.78
703.443	4.15
706.335	3.377
709.228	7.225
712.121	14.829
715.013	10.582
717.906	9.769
720.799	17.525
723.692	11.444
726.584	7.424
729.477	4.005
732.37	3.177
735.262	10.276
738.155	7.779
741.048	0.134
743.94	9.452
746.833	6.365
749.726	4.28
752.619	9.201
755.511	14.477
758.404	12.547
761.297	5.474
764.189	7.972
767.082	5.93
769.975	6.015
772.867	0.72
775.76	4.951
778.653	7.644
781.546	7.24
784.438	11.357
787.331	10.63
790.224	12.52
793.116	10.243
796.009	8.866
798.902	2.75
801.794	13.019
804.687	1.886
807.58	5.809
810.473	10.687
813.365	5.435
816.258	6.17
819.151	12.665
822.043	8.493
824.936	9.914
827.829	2.627
830.721	6.328
833.614	12.015
836.507	6.63
839.4	9.516
842.292	13.229
845.185	7.919
848.078	6.939
850.97	13.467
853.863	8.698
856.756	5.769
859.648	9.207
862.541	8.187
865.434	5.544
868.327	3.549
871.219	8.851
874.112	13.976
877.005	11.34
879.897	5.997
882.79	6.626
885.683	13.608
888.576	4.568
891.468	3.544
894.361	5.568
897.254	7.195
900.146	9.142
903.039	2.187
905.932	12.117
908.824	13.374
911.717	6.927
914.61	17.277
917.503	9.256
920.395	14.064
923.288	8.202
926.181	5.465
929.073	6.684
931.966	7.798
934.859	9.379
937.752	3.729
940.644	9.164
943.537	0.159
946.43	5.013
949.322	8.248
952.215	8.161
955.108	9.627
958	13.41
960.893	9.335
963.786	3.08
966.679	6.442
969.571	10.263
972.464	15.602
975.357	1.507
978.249	8.445
981.142	12.711
984.035	8.74
986.927	9.754
989.82	5.456
992.713	7.767
995.606	7.969
998.498	1.875
1001.39	3.886
1004.28	8.254
1007.18	8.857
1010.07	8.975
1012.96	5.856
1015.85	10.068
1018.75	17.918
1021.64	0.695
1024.53	4.322
1027.42	4.403
1030.32	6.183
1033.21	10.106
1036.1	4.687
1039	10.76
1041.89	10.288
1044.78	0.949
1047.67	2.468
1050.57	7.711
1053.46	7.239
1056.35	8.794
1059.24	13.781
1062.14	13.804
1065.03	4.7
1067.92	7.016
1070.82	16.072
1073.71	6.726
1076.6	8.66
1079.49	5.452
1082.39	5.218
1085.28	7.044
1088.17	15.083
1091.07	15.155
1093.96	8.569
1096.85	3.876
1099.74	11.98
1102.63	2.234
1105.53	8.215
1108.42	4.802
1111.31	7.343
1114.21	5.19
1117.1	1.463
1119.99	2.821
1122.88	5.646
1125.78	8.955
1128.67	8.577
1131.56	6.762
1134.45	13.054
1137.35	11.99
1140.24	7.549
1143.13	2.811
1146.03	5.764
1148.92	6.278
1151.81	3.348
1154.7	2.139
1157.6	8.233
1160.49	6.246
1163.38	1.142
1166.28	5.621
1169.17	16.308
1172.06	12.882
1174.95	3.131
1177.85	6.768
1180.74	9.031
1183.63	2.358
1186.52	2.952
1189.42	3.731
1192.31	3.535
1195.2	4.157
