Measurement: Raman, 532 nm, unoriented, Raman Data Processed
Mineral: Stephanite
Rruff sample: R050306
Ideal chemistry: Ag^1+^_5_Sb^3+^S^2-^_4_
Locality: Atlanta, Idaho, USA
Source: Eugene Schlepp
Description: Dark gray metallic crystals associated with quartz
Measured chemistry: Ag_5.00_Sb_1.00_S_4.00_
Raman shift (cm-1)	intensity
122.245	0
125.62	0.182188
128.994	0.033824
132.369	0.660202
135.744	1.2563
139.119	1.35007
142.494	0.268776
145.869	0.562422
149.243	0.97013
152.618	1.03169
155.993	0.175189
159.368	1.15515
162.743	0.152997
166.117	0.670248
169.492	0.059199
172.867	0.707593
176.242	0.430655
179.617	0.974463
182.992	0.243777
186.366	0.486367
189.741	0.542927
193.116	0.429738
196.491	0.332889
199.865	0.535994
203.24	0.282794
206.615	0.62144
209.99	0.347917
213.365	0.223217
216.74	0.541377
220.114	0.596795
223.489	0.291523
226.864	0.477096
230.239	0.884305
233.614	1.30644
236.988	0.628286
240.363	0.628655
243.738	0.471905
247.113	0.728261
250.488	0.582855
253.863	0.264578
257.237	0.263873
260.612	0.451344
263.987	0.007739
267.362	0.450729
270.737	0.528312
274.111	0.032185
277.486	0.389101
280.861	0.533965
284.236	0.51913
287.611	0.530029
290.986	0.917011
294.36	0.912262
297.735	0.024985
301.11	0.432549
304.485	1.15838
307.86	0.499283
311.235	0.435321
314.609	1.00008
317.984	0.162818
321.359	1.1736
324.734	0.392133
328.109	1.05388
331.483	1.30423
334.858	2.17733
338.233	1.19428
341.608	0.936915
344.983	0.669269
348.358	0.459232
351.732	0.271306
355.107	0.64747
358.482	0.508236
361.857	0.838418
365.231	0.512159
368.606	0.391949
371.981	0.398019
375.356	0.571069
378.731	0.068907
382.106	0.123156
385.48	0.234898
388.855	0.214252
392.23	0.161088
395.605	0.479509
398.98	0.329967
402.354	0.766529
405.729	0.552982
409.104	0.273527
412.479	0.109837
415.854	0.110793
419.229	0.730778
422.603	0.674303
425.978	0.691667
429.353	0.470535
432.728	0.307904
436.103	0.070252
439.478	0.646359
442.852	0.162825
446.227	0.436678
449.602	0.286258
452.977	0.508741
456.352	0.434701
459.726	0.482893
463.101	0.532056
466.476	0.131829
469.851	0.30642
473.226	0.444975
476.601	0.290587
479.975	0.210703
483.35	0.144929
486.725	0.479579
490.1	0.619936
493.475	0.641187
496.849	0.499654
500.224	0.551804
503.599	0.175386
506.974	0.295888
510.349	0.216909
513.723	0.293892
517.098	0.625687
520.473	0.331198
523.848	0.003778
527.223	0.083293
530.598	0.482529
533.972	0.348934
537.347	0.255528
540.722	0.427521
544.097	0.346965
547.472	0.067276
550.846	0.799617
554.221	0.784155
557.596	0.177484
560.971	0.088626
564.346	0.382958
567.721	0.410414
571.095	0.858028
574.47	0.178191
577.845	0.0447
581.22	0.091142
584.595	0.528134
587.969	0.398573
591.344	0.205999
594.719	0.049548
598.094	0.633688
601.469	0.389487
604.843	0.660517
608.218	0.38736
611.593	0.272868
614.968	0.526733
618.343	0.48384
621.718	0.091254
625.092	0.334547
628.467	0.382917
631.842	0.545369
635.217	0.328322
638.592	0.707303
641.966	0.113291
645.341	0.226454
648.716	0.670545
652.091	0.482766
655.466	0.389176
658.841	0.456472
662.215	0.533876
665.59	0.539401
668.965	0.784339
672.34	0.464511
675.715	0.224611
679.09	0.518073
682.464	0.162531
685.839	0.275523
689.214	0.626142
692.589	0.4384
695.964	0.234806
699.338	0.455545
702.713	0.070597
706.088	0.079862
709.463	0.6673
712.838	0.454443
716.212	0.389259
719.587	0.737917
722.962	0.373882
726.337	0.444462
729.712	0.028654
733.087	0.524835
736.461	0.283019
739.836	0.022211
743.211	0.948158
746.586	0.373782
749.961	0.490938
753.335	0.006579
756.71	0.376525
760.085	0.145511
763.46	0.311926
766.835	0.743192
770.21	0.369451
773.584	0.317871
776.959	0.310473
780.334	0.508492
783.709	0.413533
787.084	0.309886
790.458	0.497794
793.833	0.213422
797.208	0.096433
800.583	0.302876
803.958	0.119465
807.332	0.443911
810.707	0.147088
814.082	0.349219
817.457	0.405412
820.832	0.219756
824.207	0.451765
827.581	0.594709
830.956	0.186542
834.331	0.225206
837.706	0.724539
841.081	0.246383
844.456	0.30351
847.83	0.46039
851.205	0.112783
854.58	0.367109
857.955	0.363912
861.33	1.15879
864.704	0.492438
868.079	0.507133
871.454	0.644712
874.829	0.609508
878.204	0.041101
881.578	0.08952
884.953	0.305071
888.328	0.337341
891.703	0.066501
895.078	0.236768
898.453	0.46269
901.827	0.588875
905.202	0.260226
908.577	0.14179
911.952	0.107732
915.327	0.167808
918.702	0.15887
922.076	0.451708
925.451	0.108603
928.826	0.333206
932.201	0.017984
935.576	0.449714
938.95	0.631785
942.325	0.044245
945.7	0.445382
949.075	0.526949
952.45	0.14588
955.824	0.263449
959.199	0.273694
962.574	0.080003
965.949	0.5158
969.324	0.471525
972.698	0.059896
976.073	0.378513
979.448	0.239537
982.823	0.075573
986.198	0.613485
989.573	0.432176
992.947	0.457572
996.322	0.384854
999.697	0.199506
1003.07	0.509827
1006.45	0.252577
1009.82	0.522981
1013.2	0.403697
1016.57	0.257879
1019.95	0.642624
1023.32	0.036978
1026.7	0.740348
1030.07	0.311879
1033.44	0.558255
1036.82	0.415167
1040.19	0.826569
1043.57	0.191518
1046.94	0.387155
1050.32	0.233092
1053.69	0.602227
1057.07	0.25975
1060.44	0.5609
1063.82	0.229563
1067.19	0.020925
1070.57	0.855842
1073.94	0.501892
1077.32	0.261636
1080.69	0.49865
1084.07	0.639486
1087.44	0.253346
1090.82	0.06185
1094.19	0.262602
1097.57	0.087828
1100.94	0.491843
1104.32	0.440976
1107.69	0.540879
1111.07	0.364757
1114.44	0.234211
1117.82	0.229821
1121.19	0.581837
1124.57	0.303637
1127.94	0.692374
1131.32	0.437823
1134.69	0.699874
1138.07	0.252143
1141.44	0.409348
1144.81	0.490969
1148.19	0.452899
1151.56	0.065871
1154.94	0.350379
1158.31	0.227676
1161.69	0.71033
1165.06	0.479133
1168.44	0.410264
1171.81	0.88455
1175.19	0.351017
1178.56	0.676572
1181.94	0.389643
1185.31	0.526578
1188.69	0.341839
1192.06	0.363007
1195.44	0.413078
1198.81	0.473529
1202.19	0.228004
1205.56	0.432387
1208.94	0.225868
1212.31	0.693092
1215.68	0.1853
1219.06	0.422975
1222.43	0.48242
1225.81	0.400227
1229.18	0.635933
1232.56	0.202156
1235.93	0.519551
1239.31	0.112076
1242.68	0.108373
1246.06	0.087664
1249.43	0.286349
1252.81	0.28401
1256.18	0.253175
1259.56	0.375221
1262.93	0.229827
1266.31	0.247602
1269.68	0.077979
1273.06	0.07716
1276.43	0.359902
1279.81	0.225458
1283.18	0.300014
1286.56	0.503803
1289.93	0.025023
1293.31	0.010258
1296.68	0.296819
