Measurement: Raman, 785 nm, unoriented, Raman Data Processed
Mineral: Stephanite
Rruff sample: R050143
Ideal chemistry: Ag^1+^_5_Sb^3+^S^2-^_4_
Locality: Proano mine, Fresnillo, Zacatecas, Mexico
Source: Dave Bunk Minerals
Description: Group of black pseudohexagonal crystals
Measured chemistry: Ag_5.00_Sb_1.00_S_4.00_
Raman shift (cm-1)	intensity
140.33	0
143.223	526.767
146.116	1525.85
149.008	2581.12
151.901	3077.65
154.794	3255.74
157.686	3605.03
160.579	4395.3
163.472	5788.67
166.365	7661.56
169.257	9633.48
172.15	11221.8
175.043	12308.4
177.935	12585.2
180.828	12042.9
183.721	10871.7
186.613	9463.37
189.506	7912.92
192.399	6624.27
195.292	5701.43
198.184	5127.99
201.077	4725.79
203.97	4364.11
206.862	4157.27
209.755	3910.15
212.648	3760.17
215.54	3613.76
218.433	3577.72
221.326	3516.26
224.219	3449.75
227.111	3369.44
230.004	3361.54
232.897	3446.09
235.789	3615.87
238.682	3857.76
241.575	4314.69
244.467	4721.52
247.36	5099
250.253	5195.35
253.146	4898.73
256.038	4754.86
258.931	4775.56
261.824	4736.47
264.716	4884.44
267.609	5013.04
270.502	5181.14
273.395	5521.22
276.287	5948.64
279.18	6638.57
282.073	7500.05
284.965	8810.35
287.858	10804.4
290.751	13576.5
293.643	17188.3
296.536	21515.1
299.429	25079.7
302.322	26302.9
305.214	26801.4
308.107	29962.3
311	37074.7
313.892	47739.6
316.785	59869.1
319.678	65065
322.57	60111.7
325.463	57842
328.356	56957.5
331.249	44413.7
334.141	26800.9
337.034	15072.4
339.927	9009.9
342.819	5776.12
345.712	4036.96
348.605	2997.8
351.497	2306.69
354.39	1811.33
357.283	1433.62
360.176	1078.53
363.068	799.887
365.961	624.701
368.854	441.587
371.746	341.477
374.639	240.397
377.532	119.033
380.424	30.28
383.317	63.601
386.21	92.226
389.103	134.804
391.995	128.138
394.888	147.372
397.781	179.812
400.673	184.851
403.566	225.905
406.459	250.046
409.351	226.637
412.244	269.29
415.137	226.026
418.03	231.898
420.922	225.224
423.815	200.487
426.708	189.976
429.6	198.101
432.493	174.863
435.386	171.634
438.278	105.745
441.171	48.956
444.064	11.135
446.957	79.276
449.849	55.79
452.742	0.642
455.635	39.636
458.527	35.759
461.42	41.194
464.313	47.785
467.205	44.935
470.098	43.746
472.991	29.814
475.884	37.877
478.776	38.608
481.669	43.237
484.562	27.315
487.454	10.219
490.347	17.756
493.24	9.638
496.132	14.822
499.025	6.698
501.918	9.968
504.81	15.343
507.703	9.892
510.596	9.432
513.489	11.464
516.381	12.379
519.274	0.564
522.167	15.265
525.059	8.01
527.952	11.855
530.845	6.272
533.737	18.727
536.63	12.014
539.523	1.686
542.416	8.528
545.308	7.331
548.201	8.352
551.094	22.543
553.987	1.413
556.879	15.854
559.772	22.238
562.665	5.137
565.557	21.041
568.45	28.745
571.343	11.348
574.235	12.536
577.128	12.093
580.021	10.704
582.914	7.429
585.806	9.704
588.699	16.566
591.592	18.214
594.484	23.598
597.377	16.34
600.27	60.975
603.162	41.674
606.055	51.907
608.948	59.285
611.841	54.493
614.733	83.971
617.626	91.495
620.519	81.547
623.411	65.007
626.304	86.966
629.197	80.758
632.089	65.785
634.982	78.014
637.875	79.185
640.768	77.561
643.66	66.179
646.553	59.18
649.446	65.919
652.338	66.793
655.231	106.323
658.124	103.003
661.016	101.667
663.909	85.559
666.802	79.076
669.695	70.024
672.587	25.886
675.48	24.361
678.373	1.645
681.265	9.241
684.158	15.711
687.051	6.907
689.943	4.151
692.836	8.192
695.729	2.362
698.622	17.05
701.514	10.405
704.407	4.18
707.3	13.102
710.192	5.44
713.085	6.793
715.978	13.559
718.87	4.94
721.763	4.353
724.656	1.614
727.549	4.198
730.441	6.695
733.334	8.87
736.227	3.045
739.119	7.988
742.012	2.634
744.905	19.756
747.797	13.239
750.69	2.539
753.583	2.483
756.476	10.016
759.368	8.106
762.261	6.88
765.154	8.433
768.046	1.357
770.939	0.041
773.832	0.911
776.724	3.122
779.617	20.429
782.51	12.045
785.403	8.719
788.295	11.972
791.188	26.014
794.081	23
796.973	19.186
799.866	11.984
802.759	12.158
805.651	5.825
808.544	1.93
811.437	1.788
814.33	11.626
817.222	29.26
820.115	40.761
823.008	33.957
825.9	26.683
828.793	19.303
831.686	25.589
834.578	29.808
837.471	31.085
840.364	10.628
843.256	11.685
846.149	17.317
849.042	15.742
851.935	19.56
854.827	7.347
857.72	11.763
860.613	15.478
863.505	7.864
866.398	4.933
869.291	7.812
872.183	6.898
875.076	1.511
877.969	12.116
880.862	13.081
883.754	3.76
886.647	0.266
889.54	14.258
892.432	6.275
895.325	6.372
898.218	21.023
901.11	8.839
904.003	9.529
906.896	12.435
909.789	11.075
912.681	12.52
915.574	3.631
918.467	10.813
921.359	8.109
924.252	9.613
927.145	22.076
930.037	19.741
932.93	4.943
935.823	4.13
938.716	9.64
941.608	20.109
944.501	14.261
947.394	0.245
950.286	9.527
953.179	12.387
956.072	13.38
958.964	8.835
961.857	15.771
964.75	22.629
967.643	8.389
970.535	12.738
973.428	16.301
976.321	0.805
979.213	0.102
982.106	10.528
984.999	5.992
987.891	16.405
990.784	2.343
993.677	21.911
996.57	17.56
999.462	25.422
1002.36	11.116
1005.25	25.432
1008.14	1.963
1011.03	11.226
1013.93	6.376
1016.82	10.228
1019.71	10.538
1022.6	10.742
1025.5	8.234
1028.39	5.352
1031.28	21.118
1034.17	9.578
1037.07	9.081
1039.96	21.65
1042.85	25.369
1045.74	16.077
1048.64	7.817
1051.53	37.918
1054.42	26.8
1057.32	50.936
1060.21	41.233
1063.1	35.633
1065.99	43.082
1068.89	63.73
1071.78	36.098
1074.67	51.415
1077.57	30.377
1080.46	35.587
1083.35	28.146
1086.24	27.43
1089.14	25.044
1092.03	8.072
1094.92	44.945
1097.81	13.417
1100.71	16.158
1103.6	6.666
1106.49	13.022
1109.38	30.14
1112.28	53.481
1115.17	43.331
1118.06	46.177
1120.96	45.649
1123.85	29.366
1126.74	55.284
1129.63	44.594
1132.53	46.922
1135.42	34.89
1138.31	42.961
1141.2	38.481
1144.1	37.161
1146.99	50.918
1149.88	37.244
1152.78	40.748
1155.67	19.666
1158.56	24.404
1161.45	17.743
1164.35	19.541
1167.24	8.234
1170.13	22.099
1173.02	27.561
1175.92	18.812
1178.81	18.673
1181.7	1.357
1184.6	30.402
1187.49	28.745
1190.38	11.932
1193.27	7.255
1196.17	21.534
1199.06	20.916
1201.95	21.509
1204.84	11.79
1207.74	23.894
1210.63	19.503
1213.52	2.847
1216.41	10.357
1219.31	4.098
1222.2	19.245
1225.09	24.19
1227.99	8.899
1230.88	0.827
1233.77	0.114
1236.66	2.394
1239.56	11.462
1242.45	19.773
1245.34	11.275
1248.23	24.716
1251.13	2.169
1254.02	8.672
1256.91	26.848
1259.81	9.243
1262.7	6.075
1265.59	3.56
1268.48	5.373
1271.38	8.524
