Measurement: Raman, 532 nm, unoriented, Raman Data Processed
Mineral: Stephanite
Rruff sample: R050143
Ideal chemistry: Ag^1+^_5_Sb^3+^S^2-^_4_
Locality: Proano mine, Fresnillo, Zacatecas, Mexico
Source: Dave Bunk Minerals
Description: Group of black pseudohexagonal crystals
Measured chemistry: Ag_5.00_Sb_1.00_S_4.00_
Raman shift (cm-1)	intensity
148.039	0
150.932	3.878
153.825	7.031
156.717	11.279
159.61	13.924
162.503	31.492
165.396	38.925
168.288	44.496
171.181	48.744
174.074	57.707
176.966	59.443
179.859	81.933
182.752	71.969
185.645	71.129
188.537	66.08
191.43	62.786
194.323	73.258
197.215	64.216
200.108	74.517
203.001	62.661
205.893	76.335
208.786	71.565
211.679	79.093
214.572	82.37
217.464	82.856
220.357	85.225
223.25	88.32
226.142	96.928
229.035	97.241
231.928	111.834
234.82	96.04
237.713	102.647
240.606	102.599
243.498	101.985
246.391	115.866
249.284	119.733
252.176	106.814
255.069	105.84
257.962	110.239
260.855	110.708
263.747	100.499
266.64	104.524
269.533	90.854
272.425	78.774
275.318	85.445
278.211	89.953
281.103	76.207
283.996	71.984
286.889	74.929
289.782	92.95
292.674	88.107
295.567	108.071
298.46	126.605
301.352	115.119
304.245	131.271
307.138	151.775
310.03	181.558
312.923	248.933
315.816	320.991
318.709	391.648
321.601	433.534
324.494	390.676
327.387	316.804
330.279	226.853
333.172	141.779
336.065	80.094
338.957	47.406
341.85	23.497
344.743	13.531
347.635	12.41
350.528	1.968
353.421	0.048
356.314	6.265
359.206	2.711
362.099	0.287
364.992	0.616
367.884	0.792
370.777	7.249
373.67	1.349
376.562	5.574
379.455	3.008
382.348	12.852
385.241	7.043
388.133	2.432
391.026	2.072
393.919	7.96
396.811	1.076
399.704	12.547
402.597	5.284
405.49	2.322
408.382	3.457
411.275	1.326
414.168	2.436
417.06	0.009
419.953	3.959
422.846	2.842
425.738	9.356
428.631	0.401
431.524	8.327
434.417	0.669
437.309	6.098
440.202	4.53
443.095	5.288
445.987	3.701
448.88	2.71
451.773	5.292
454.665	9.941
457.558	6.081
460.451	7.845
463.343	9.567
466.236	4.718
469.129	0.274
472.022	2.155
474.914	0.044
477.807	5.056
480.7	4.109
483.592	2.387
486.485	2.331
489.378	5.014
492.27	6.607
495.163	7.343
498.056	1.241
500.948	4.744
503.841	6.147
506.734	8.951
509.627	6.118
512.519	2.544
515.412	4.486
518.305	0.074
521.197	0.436
524.09	6.684
526.983	1.17
529.875	0.767
532.768	4.166
535.661	2.283
538.554	7.642
541.446	4.79
544.339	1.914
547.232	6.828
550.124	2.888
553.017	8.738
555.91	5.455
558.802	7.384
561.695	3.265
564.588	5.15
567.481	1.54
570.373	10.005
573.266	3.737
576.159	1.944
579.051	8.464
581.944	6.521
584.837	9.313
587.729	8.703
590.622	10.347
593.515	11.792
596.407	7.071
599.3	4.615
602.193	1.477
605.086	0.809
607.978	10.845
610.871	5.251
613.764	6.684
616.656	10.191
619.549	9.925
622.442	16.85
625.334	11.678
628.227	9.477
631.12	11.723
634.013	12.988
636.905	9.993
639.798	13.925
642.691	8.907
645.583	7.616
648.476	7.199
651.369	12.622
654.261	2.067
657.154	12.445
660.047	12.373
662.94	14.618
665.832	7.708
668.725	4.224
671.618	8.925
674.51	11.184
677.403	6.614
680.296	5.981
683.188	8.919
686.081	2.383
688.974	8.042
691.867	3.733
694.759	3.217
697.652	5.509
700.545	11.813
703.437	4.948
706.33	2.329
709.223	4.696
712.115	6.482
715.008	10.073
717.901	2.067
720.794	7.38
723.686	11.584
726.579	3.831
729.472	10.45
732.364	3.133
735.257	7.86
738.15	6.779
741.042	6.953
743.935	3.788
746.828	4.979
749.721	9.676
752.613	10.01
755.506	5.71
758.399	7.428
761.291	6.639
764.184	4.526
767.077	2.426
769.969	2.68
772.862	0.829
775.755	4.574
778.648	4.461
781.54	4.989
784.433	1.942
787.326	1.471
790.218	2.049
793.111	9.15
796.004	10.538
798.896	8.029
801.789	7.271
804.682	6.02
807.574	2.94
810.467	3.719
813.36	8.936
816.253	10.919
819.145	3.016
822.038	2.199
824.931	3.873
827.823	3.763
830.716	8.169
833.609	5.407
836.501	4.63
839.394	8.703
842.287	2.033
845.18	3.224
848.072	6.739
850.965	10.244
853.858	2.335
856.75	3.682
859.643	3.114
862.536	7.444
865.428	4.092
868.321	3.432
871.214	3.541
874.106	5.203
876.999	12.404
879.892	7.899
882.784	5.134
885.677	5.306
888.57	11.333
891.463	17.456
894.355	0.368
897.248	10.308
900.141	3.419
903.033	7.412
905.926	6.48
908.819	5.231
911.711	9.381
914.604	7.905
917.497	12.756
920.39	2.183
923.282	15.062
926.175	8.495
929.068	0.7
931.96	14.752
934.853	0.064
937.746	8.318
940.638	0.917
943.531	0.125
946.424	8.126
949.317	11.271
952.209	14.121
955.102	13.55
957.995	15.672
960.887	11.071
963.78	1.291
966.673	4.652
969.565	8.639
972.458	9.749
975.351	0.952
978.244	2.18
981.136	6.496
984.029	1.881
986.922	0.894
989.814	4.573
992.707	5.653
995.6	12.155
998.492	6.165
1001.38	10.373
1004.28	4.827
1007.17	2.501
1010.06	5.68
1012.96	5.401
1015.85	7.496
1018.74	7.906
1021.63	2.071
1024.53	6.456
1027.42	0.401
1030.31	3.504
1033.2	2.083
1036.1	15.295
1038.99	12.226
1041.88	6.012
1044.78	7.712
1047.67	0.847
1050.56	7.724
1053.45	4.985
1056.35	4.013
1059.24	5.369
1062.13	0.032
1065.03	2.047
1067.92	6.868
1070.81	11.637
1073.7	11.514
1076.6	5.263
1079.49	10.67
1082.38	1.256
1085.27	2.353
1088.17	3.853
1091.06	3.348
1093.95	5.127
1096.84	2.409
1099.74	7.206
1102.63	1.373
1105.52	1.807
1108.41	3.182
1111.31	11.3
1114.2	4.2
1117.09	5.067
1119.99	16.19
1122.88	6.151
1125.77	11.628
1128.66	4.47
1131.56	3.55
1134.45	3.086
1137.34	5.877
1140.23	11.718
1143.13	6.87
1146.02	9.609
1148.91	9.741
1151.81	16.427
1154.7	16.215
1157.59	7.483
1160.48	6.321
1163.38	10.414
1166.27	10.999
1169.16	12.529
1172.05	4.525
1174.95	9.577
1177.84	6.435
1180.73	3.13
1183.62	15.439
1186.52	9.538
1189.41	16.61
1192.3	11.213
1195.2	12.207
1198.09	8.381
1200.98	10.92
1203.87	9.094
1206.77	8.324
1209.66	4.04
1212.55	5.088
1215.44	1.539
1218.34	11.439
1221.23	3.067
1224.12	10.245
1227.02	4.427
1229.91	9.884
1232.8	2.111
1235.69	8.807
1238.59	6.956
1241.48	8.476
1244.37	3.227
1247.26	4.794
1250.16	2.098
1253.05	7.035
1255.94	1.135
1258.84	14.387
1261.73	1.657
1264.62	4.017
1267.51	1.158
1270.41	0.917
1273.3	13.819
1276.19	4.315
1279.08	0.129
1281.98	2.411
1284.87	3.311
1287.76	3.714
1290.65	4.99
1293.55	6.193
1296.44	5.396
1299.33	9.289
