Measurement: Raman, 780 nm, unoriented, Raman Data Processed
Mineral: Stibarsen
Rruff sample: R060115
Ideal chemistry: SbAs
Locality: Moctezuma, Sonora, Mexico
Source: University of Arizona Mineral Museum
Description: Tin-white reniform mass with many small inclusions of antimony
Measured chemistry: gray phase: Sb_1.00_As_1.00_; light inclusions: Sb_2.00_(Sb_1.12_As_0.88_)_Î£=2_
Raman shift (cm-1)	intensity
126.738	0
130.113	0.558235
133.487	0.639919
136.862	1.36439
140.237	2.0926
143.612	1.50152
146.987	0.772765
150.362	0.354612
153.736	0.136941
157.111	0.02408
160.486	0.161781
163.861	0.098346
167.236	0.082009
170.61	0.742451
173.985	0.998937
177.36	1.04449
180.735	1.30077
184.11	1.55925
187.484	2.19682
190.859	1.83084
194.234	0.411639
197.609	0.015714
200.984	0.041873
204.358	0.099405
207.733	0.026087
211.108	0.067527
214.483	0.146157
217.858	0.026784
221.233	0.682151
224.607	0.914393
227.982	0.744511
231.357	0.963718
234.732	0.943671
238.107	0.977556
241.482	1.2762
244.856	1.81138
248.231	1.39655
251.606	1.27732
254.981	0.597019
258.356	0.45235
261.73	0.161792
265.105	0.041524
268.48	0.060282
271.855	0.169776
275.23	0.655039
278.604	0.928691
281.979	0.616251
285.354	0.501451
288.729	0.363445
292.104	0.710145
295.478	0.717179
298.853	0.171904
302.228	0.514542
305.603	0.070773
308.978	0.647672
312.353	0.226569
315.727	0.408544
319.102	0.111955
322.477	0.031563
325.852	0.099062
329.227	0.135693
332.601	0.186825
335.976	0.04112
339.351	0.125897
342.726	0.043529
346.101	0.009539
349.476	0.122155
352.85	0.332956
356.225	0.101905
359.6	0.15894
362.975	0.375964
366.35	0.186321
369.724	0.457361
373.099	0.204488
376.474	0.609211
379.849	0.039077
383.224	0.137627
386.599	0.071505
389.973	0.006252
393.348	0.032622
396.723	0.156052
400.098	0.286216
403.473	0.06789
406.847	0.110372
410.222	0.036632
413.597	0.417295
416.972	0.232196
420.347	0.399051
423.721	0.188125
427.096	0.357174
430.471	0.293458
433.846	0.225286
437.221	0.152053
440.596	0.158917
443.97	0.08703
447.345	0.176693
450.72	0.509686
454.095	0.470035
457.47	0.619175
460.844	0.140934
464.219	0.313608
467.594	0.22249
470.969	0.55098
474.344	0.288718
477.719	0.479466
481.093	0.167884
484.468	0.23937
487.843	0.500118
491.218	0.140838
494.592	0.516193
497.967	0.30823
501.342	0.577533
504.717	0.404555
508.092	0.40972
511.467	0.329971
514.841	0.296262
518.216	0.393725
521.591	0.060694
524.966	0.025887
528.341	0.020229
531.716	0.059292
535.09	0.676251
538.465	0.492987
541.84	0.67184
545.215	0.597368
548.59	0.39875
551.964	0.030442
555.339	0.198506
558.714	0.286198
562.089	0.482019
565.464	0.450698
568.838	0.074824
572.213	0.157894
575.588	0.037655
578.963	0.080057
582.338	0.220251
585.712	0.020226
589.087	0.211366
592.462	0.033029
595.837	0.379716
599.212	0.26851
602.587	0.224748
605.961	0.458235
609.336	0.090433
612.711	0.183513
616.086	0.127638
619.461	0.03052
622.836	0.015692
626.21	0.015738
629.585	0.32039
632.96	0.157303
636.335	0.177624
639.71	0.359325
643.084	0.139577
646.459	0.321276
649.834	0.303733
653.209	0.274642
656.584	0.455232
659.958	0.17086
663.333	0.310676
666.708	0.468788
670.083	0.287684
673.458	0.393184
676.832	0.345996
680.207	0.244273
683.582	0.38089
686.957	0.478962
690.332	0.374403
693.707	0.067872
697.081	0.30742
700.456	0.28792
703.831	0.343827
707.206	0.316423
710.581	0.148139
713.955	0.233502
717.33	0.163247
720.705	0.335331
724.08	0.334354
727.455	0.366556
730.83	0.219051
734.204	0.278831
737.579	0.016273
740.954	0.546333
744.329	0.422002
747.704	0.396898
751.078	0.373904
754.453	0.060263
757.828	0.294605
761.203	0.403748
764.578	0.062611
767.952	0.222023
771.327	0.054752
774.702	0.125999
778.077	0.5234
781.452	0.332046
784.827	0.053896
788.201	0.014678
791.576	0.331741
794.951	0.062739
798.326	0.173772
801.701	0.252184
805.075	0.04119
808.45	0.31119
811.825	0.201099
815.2	0.424252
818.575	0.065009
821.949	0.327609
825.324	0.220828
828.699	0.455251
832.074	0.253644
835.449	0.93433
838.824	0.833111
842.198	0.446236
845.573	0.467656
848.948	0.38486
852.323	0.608862
855.698	0.742654
859.072	0.607612
862.447	0.514627
865.822	0.257514
869.197	0.446868
872.572	0.459972
875.947	0.210922
879.321	0.651989
882.696	0.45674
886.071	0.042286
889.446	0.247144
892.821	0.086057
896.195	0.347513
899.57	0.250017
902.945	0.606704
906.32	0.075871
909.695	0.337115
913.069	0.079179
916.444	0.180756
919.819	0.334317
923.194	0.408026
926.569	0.67399
929.944	0.04026
933.318	0.132883
936.693	0.079627
940.068	0.041068
943.443	0.039734
946.818	0.26492
950.192	0.454864
953.567	0.021484
956.942	0.323022
960.317	0.106235
963.692	0.517237
967.067	0.281743
970.441	0.132412
973.816	0.112876
977.191	0.484687
980.566	0.094273
983.941	0.303384
987.315	0.327676
990.69	0.495717
994.065	0.351275
997.44	0.024689
1000.82	0.459706
1004.19	0.611976
1007.56	0.265052
1010.94	0.168742
1014.31	0.297958
1017.69	0.178906
1021.06	0.497271
1024.44	0.236638
1027.81	0.151767
1031.19	0.238839
1034.56	0.481132
1037.94	0.047383
1041.31	0.452476
1044.69	0.625175
1048.06	0.025988
1051.44	0.198594
1054.81	0.246383
1058.19	0.226863
1061.56	0.012068
1064.94	0.12177
1068.31	0.067824
1071.69	0.150403
1075.06	0.127376
1078.43	0.067453
1081.81	0.555259
1085.18	0.342642
1088.56	0.317889
1091.93	0.255915
1095.31	0.213366
1098.68	0.439399
1102.06	0.096757
1105.43	0.194672
1108.81	0.099277
1112.18	0.159738
1115.56	0.283538
1118.93	0.08362
1122.31	0.115691
1125.68	0.016502
1129.06	0.572617
1132.43	0.433775
1135.81	0.043634
1139.18	0.194048
1142.56	0.499324
1145.93	0.014075
1149.31	0.346041
1152.68	0.656252
1156.06	0.302482
1159.43	1.01429
1162.81	0.206401
1166.18	0.539702
1169.56	0.137624
1172.93	0.38922
1176.31	0.41543
1179.68	0.538983
1183.06	0.199991
1186.43	0.199819
1189.8	0.294592
1193.18	0.455158
1196.55	0.350697
1199.93	0.290991
1203.3	0.571334
1206.68	0.031163
1210.05	0.32804
1213.43	0.298278
1216.8	0.475188
1220.18	0.32581
1223.55	0.251583
1226.93	0.045756
1230.3	0.199079
1233.68	0.370693
1237.05	0.039141
1240.43	0.406265
1243.8	0.247255
1247.18	0.163608
1250.55	0.195238
1253.93	0.185902
1257.3	0.211324
1260.67	0.342103
1264.05	0.263612
1267.42	0.044722
1270.8	0.363199
1274.17	0.00206
1277.55	0.373643
1280.92	0.206831
1284.3	0.533069
