Measurement: Raman, 785 nm, unoriented, Raman Data Processed
Mineral: Stillwellite-(Ce)
Rruff sample: R060899
Ideal chemistry: CeBSiO_5_
Locality: Dara-i-Pioz, Alayskiy Range, South Tien- Shan Mountains, Tajikistan
Source: Michael Scott
Description: Red or green (depending upon light source) hexagonal prism associated with aegirine and orthoclase
Raman shift (cm-1)	intensity
135.027	0
137.919	7.45996
140.812	57.3374
143.705	269.079
146.597	465.907
149.49	485.582
152.383	332.07
155.276	153.654
158.168	34.6024
161.061	44.0442
163.954	96.5102
166.846	151.65
169.739	171.408
172.632	113.271
175.524	15.6101
178.417	0.739258
181.31	18.2678
184.203	6.47144
187.095	23.4463
189.988	94.5102
192.881	172.51
195.773	277.709
198.666	392.336
201.559	556.982
204.452	782.716
207.344	957.464
210.237	1215.03
213.13	1525.5
216.022	1780.25
218.915	1997.69
221.808	2178.83
224.7	2269.2
227.593	2297
230.486	2170.53
233.379	2028.55
236.271	1910.73
239.164	1731.84
242.057	1605.6
244.949	1394.82
247.842	1208.93
250.735	1164.25
253.627	984.803
256.52	923.366
259.413	831.597
262.305	713.874
265.198	696.511
268.091	576.934
270.984	520.137
273.876	460.162
276.769	409.696
279.662	405.576
282.554	411.128
285.447	433.029
288.34	396.778
291.233	376.124
294.125	374.928
297.018	314.948
299.911	310.113
302.803	367.413
305.696	290.271
308.589	231.626
311.481	211.641
314.374	101.907
317.267	87.6611
320.159	34.0293
323.052	12.9644
325.945	23.124
328.838	50.6201
331.73	28.1792
334.623	46.9907
337.516	41.2485
340.408	44.5923
343.301	77.4302
346.194	12.5859
349.087	10.0923
351.979	18.6704
354.872	55.3804
357.765	84.8599
360.657	133.339
363.55	121.29
366.443	219.857
369.335	344.935
372.228	436.298
375.121	638.16
378.014	763.479
380.906	847.294
383.799	997.276
386.692	1156.86
389.584	1330.34
392.477	1458.35
395.37	1578.08
398.262	1715.87
401.155	1760.56
404.048	1733.59
406.941	1706.38
409.833	1630.16
412.726	1612.25
415.619	1662.91
418.511	1574.83
421.404	1494.16
424.297	1440.36
427.19	1307.52
430.082	1211.95
432.975	1083.1
435.868	987.044
438.76	921.04
441.653	805.204
444.546	681.485
447.438	570.021
450.331	476.248
453.224	392.584
456.116	257.309
459.009	224.531
461.902	170.623
464.795	108.941
467.687	80.7363
470.58	53.8066
473.473	15.4375
476.365	34.6636
479.258	47.646
482.151	17.7651
485.043	16.5239
487.936	49.1416
490.829	89.2056
493.722	43.8325
496.614	116.238
499.507	210.3
502.4	212.375
505.292	238.187
508.185	313.398
511.078	386.283
513.971	403.757
516.863	423.97
519.756	522.694
522.649	570.505
525.541	595.556
528.434	625.286
531.327	626.807
534.219	672.283
537.112	658.961
540.005	631.827
542.898	642.985
545.79	604.523
548.683	579.942
551.576	585.721
554.468	541.648
557.361	464.536
560.254	498.297
563.146	417.423
566.039	379.312
568.932	285.42
571.824	254.493
574.717	262.834
577.61	187.283
580.503	190.904
583.395	164.35
586.288	126.933
589.181	74.3491
592.073	43.595
594.966	14.0754
597.859	11.9785
600.751	0.949707
603.644	51.2151
606.537	3.87988
609.43	4.29639
612.322	7.17627
615.215	22.8809
618.108	48.7202
621	85.3872
623.893	97.8369
626.786	168.508
629.678	229.458
632.571	272.061
635.464	316.621
638.357	377.375
641.249	411.394
644.142	480.349
647.035	508.158
649.927	568.491
652.82	604.558
655.713	586.677
658.606	633.065
661.498	672.982
664.391	601.533
667.284	610.981
670.176	610.133
673.069	606.635
675.962	615.816
678.854	581.499
681.747	539.272
684.64	522.717
687.533	452.702
690.425	419.092
693.318	400.162
696.211	320.965
699.103	294.246
701.996	261.577
704.889	166.109
707.781	153.026
710.674	101.927
713.567	57.9033
716.46	51.5483
719.352	22.9465
722.245	7.29224
725.138	7.76245
728.03	20.2705
730.923	33.8355
733.816	36.1445
736.708	26.1196
739.601	6.17334
742.494	4.27783
745.386	14.9016
748.279	41.5516
751.172	59.3551
754.065	56.0372
756.957	69.2635
759.85	89.8048
762.743	113.334
765.635	122.326
768.528	115.946
771.421	137.549
774.313	128.127
777.206	149.42
780.099	143.608
782.992	150.048
785.884	132.319
788.777	131.01
791.67	84.2256
794.562	100.617
797.455	93.4957
800.348	59.1063
803.24	59.2705
806.133	56.977
809.026	75.0276
811.919	81.4131
814.811	64.0317
817.704	83.5297
820.597	72.1444
823.489	82.3511
826.382	128.268
829.275	131.942
832.168	157.175
835.06	160.856
837.953	232.121
840.846	207.177
843.738	261.104
846.631	270.688
849.524	324.315
852.416	316.387
855.309	353.733
858.202	405.9
861.095	441.064
863.987	481.359
866.88	454.297
869.773	495.856
872.665	537.337
875.558	563.227
878.451	574.122
881.343	619.812
884.236	620.989
887.129	635.017
890.021	687.397
892.914	699.567
895.807	742.413
898.7	769.088
901.592	807.516
904.485	871.313
907.378	953.09
910.27	1030.34
913.163	1073.39
916.056	1072.47
918.949	1134.35
921.841	1124.42
924.734	1126.22
927.627	1090.67
930.519	1009.55
933.412	948.724
936.305	856.877
939.197	760.4
942.09	619.076
944.983	564.911
947.876	403.833
950.768	280.394
953.661	210.929
956.554	124.936
959.446	-30.6988
962.339	-1.72214
965.232	36.2957
968.125	50.9717
971.017	50.7791
973.91	0.896211
976.803	13.0578
979.695	40.9045
982.588	35.2567
985.481	-7.2294
988.373	-20.7322
991.266	168.55
994.159	386.872
997.052	745.464
999.944	1130.86
1002.84	1560.53
1005.73	2150.15
1008.62	2706.56
1011.51	3443.22
1014.41	4376.85
1017.3	5452.28
1020.19	6593.69
1023.09	8060.07
1025.98	9721.45
1028.87	11359.4
1031.76	13186.9
1034.66	14763.4
1037.55	15994.2
1040.44	16704.7
1043.34	16959.1
1046.23	16552.2
1049.12	16198.7
1052.01	15526.9
1054.91	14881.1
1057.8	14058.3
1060.69	13221.9
1063.58	12575.4
1066.48	11793.1
1069.37	11109.2
1072.26	10471.9
1075.15	9832.43
1078.05	9148.72
1080.94	8611.83
1083.83	7956.82
1086.72	7196.92
1089.62	6569.02
1092.51	6096.08
1095.4	5673.81
1098.3	5122
1101.19	4597.09
1104.08	4090.1
1106.97	3840.67
1109.87	3680.74
1112.76	3852.68
1115.65	3985.84
1118.55	4230.35
1121.44	4296.25
1124.33	4261.57
1127.22	4208.33
1130.12	4136.69
1133.01	3833.04
1135.9	3594.85
1138.79	3403.52
1141.69	3272.68
1144.58	2916.83
1147.47	2628.94
1150.37	2153.51
1153.26	1827.57
1156.15	1387.54
1159.04	970.326
1161.93	469.793
1164.83	30.8919
1167.72	0.154741
1170.61	30.6314
1173.51	3.89559
1176.4	-7.94367
1179.29	118.494
1182.18	984.973
1185.08	1871.51
1187.97	3073.23
1190.86	4103.84
1193.76	5462.07
1196.65	6883.17
1199.54	7850.5
1202.43	7580.49
1205.33	6879.29
1208.22	6912.23
1211.11	7056.72
1214	6872.82
1216.9	6208.34
1219.79	4937.44
1222.68	3593.78
1225.58	1977.05
1228.47	543.438
