Measurement: Raman, 780 nm, unoriented, Raman Data RAW
Mineral: Stillwellite-(Ce)
Rruff sample: R060911
Ideal chemistry: CeBSiO_5_
Locality: Dimbulah, Queensland, Australia
Source: Royal Ontario Museum
Description: Dark orange crystalline blebs intergrown with fluorapatite
Raman shift (cm-1)	intensity
157.171	1878.23
160.064	1923.07
162.957	2030.4
165.85	2075.75
168.742	2089.81
171.635	2127.8
174.528	2133.1
177.42	2230.52
180.313	2225.53
183.206	2199.91
186.098	2159.87
188.991	2184.52
191.884	2218.01
194.776	2175.64
197.669	2201.34
200.562	2189.53
203.455	2166.76
206.347	2182.32
209.24	2190.72
212.133	2143.76
215.025	2180.97
217.918	2221.73
220.811	2169.45
223.703	2199.46
226.596	2170.58
229.489	2175.02
232.382	2221.26
235.274	2228.46
238.167	2297.36
241.06	2304.94
243.952	2363.93
246.845	2378.7
249.738	2403.43
252.631	2481.62
255.523	2532.47
258.416	2587.53
261.309	2678.36
264.201	2759.11
267.094	2830.45
269.987	2966.16
272.879	3040.58
275.772	3191.58
278.665	3298.64
281.558	3407.87
284.45	3593.99
287.343	3698.97
290.236	3839.56
293.128	3937.82
296.021	3966.19
298.914	4105.33
301.806	4088.84
304.699	4176.59
307.592	4190.34
310.485	4186.58
313.377	4175.99
316.27	4220.49
319.163	4218.19
322.055	4170.73
324.948	4223.51
327.841	4161.66
330.733	4172.8
333.626	4159.83
336.519	4159.8
339.411	4213.93
342.304	4188.62
345.197	4217.25
348.09	4209.99
350.982	4202.03
353.875	4227.29
356.768	4253.35
359.66	4247.24
362.553	4263.42
365.446	4234.18
368.339	4278.15
371.231	4298.4
374.124	4244.89
377.017	4286.66
379.909	4234.85
382.802	4251.85
385.695	4214.28
388.587	4254.36
391.48	4164.74
394.373	4171.76
397.265	4197.2
400.158	4110.08
403.051	4099.14
405.944	4101.16
408.836	4011.36
411.729	4065.56
414.622	4000.19
417.514	4026.96
420.407	4016.11
423.3	4007.09
426.192	3976.84
429.085	3948.38
431.978	3950.82
434.871	3920.96
437.763	3943.17
440.656	3950.84
443.549	3933.41
446.441	3966.21
449.334	3970.22
452.227	3956.24
455.12	3999.32
458.012	3995.06
460.905	4013.55
463.798	4035.01
466.69	4059.69
469.583	4092.81
472.476	4088.87
475.368	4079.22
478.261	4072.21
481.154	4098.48
484.046	4031.82
486.939	4013.21
489.832	3983.49
492.725	3960.93
495.617	3947.55
498.51	3909.91
501.403	3883.35
504.295	3843.97
507.188	3786.26
510.081	3741.41
512.973	3715.48
515.866	3696.45
518.759	3625.86
521.652	3596.98
524.544	3510.12
527.437	3491.03
530.33	3441.01
533.222	3446.61
536.115	3348.46
539.008	3349.13
541.9	3325.16
544.793	3257.33
547.686	3275.82
550.579	3229.55
553.471	3246.28
556.364	3173.34
559.257	3147.59
562.149	3090.61
565.042	3103.33
567.935	3069.51
570.827	3036.4
573.72	3097.08
576.613	3044.24
579.506	3036.55
582.398	3041.88
585.291	2989.45
588.184	2944.5
591.076	2968.16
593.969	2951.96
596.862	2929.37
599.755	2938.86
602.647	2942.52
605.54	2914.19
608.433	2965.94
611.325	2946.58
614.218	2883.32
617.111	2903.51
620.003	2857.09
622.896	2861.14
625.789	2811.96
628.682	2818.68
631.574	2728.97
634.467	2747.75
637.36	2664.03
640.252	2672.49
643.145	2597.38
646.038	2619.84
648.93	2570.51
651.823	2565.03
654.716	2483.44
657.609	2508.93
660.501	2458.14
663.394	2390.46
666.287	2389.98
669.179	2317.43
672.072	2295.51
674.965	2277.76
677.857	2250.67
680.75	2202.09
683.643	2200.19
686.535	2192.89
689.428	2173.59
692.321	2163.65
695.214	2118.84
698.106	2114.06
700.999	2106.03
703.892	2085.92
706.784	2092.09
709.677	2070.01
712.57	2049.64
715.462	2057.04
718.355	2037.08
721.248	2032.8
724.141	2018.88
727.033	2030.56
729.926	2013.46
732.819	2007.54
735.711	1966.74
738.604	2001.13
741.497	1916.03
744.389	1899.73
747.282	1912.64
750.175	1873.65
753.068	1868.35
755.96	1841.63
758.853	1827.3
761.746	1798.86
764.638	1781.83
767.531	1729.43
770.424	1736.22
773.317	1698.87
776.209	1663.24
779.102	1675.32
781.995	1607.94
784.887	1607.75
787.78	1580.39
790.673	1567.75
793.565	1544.31
796.458	1553.33
799.351	1482.67
802.244	1472.79
805.136	1459.99
808.029	1480.93
810.922	1440.08
813.814	1432.75
816.707	1395.88
819.6	1407.91
822.492	1413.34
825.385	1374.95
828.278	1354.81
831.17	1371.19
834.063	1342.31
836.956	1339.25
839.849	1319.42
842.741	1301.97
845.634	1295.44
848.527	1275.91
851.419	1255.04
854.312	1235.15
857.205	1204.8
860.097	1248.77
862.99	1214.52
865.883	1199.64
868.776	1195.59
871.668	1188.84
874.561	1175.84
877.454	1183.27
880.346	1118.22
883.239	1131.25
886.132	1135.71
889.024	1146.24
891.917	1128.93
894.81	1129.55
897.703	1146.29
900.595	1125.58
903.488	1120.51
906.381	1117.74
909.273	1131.9
912.166	1121.14
915.059	1122.24
917.952	1138.99
920.844	1147.47
923.737	1139.64
926.63	1136.38
929.522	1138.71
932.415	1125.03
935.308	1152.59
938.2	1142.71
941.093	1174.07
943.986	1151.66
946.879	1189.38
949.771	1217.54
952.664	1204.67
955.557	1240.85
958.449	1254.73
961.342	1283.31
964.235	1318.26
967.127	1329.94
970.02	1365.35
972.913	1397.19
975.806	1427.72
978.698	1461.04
981.591	1508.93
984.484	1517.15
987.376	1557.07
990.269	1612.32
993.162	1665.69
996.054	1706.85
998.947	1756.98
1001.84	1791.83
1004.73	1896.02
1007.62	1940.94
1010.52	2034.94
1013.41	2129.52
1016.3	2231.24
1019.2	2296.23
1022.09	2428.07
1024.98	2552.36
1027.87	2641.28
1030.77	2797.6
1033.66	2933.66
1036.55	3084.03
1039.44	3260.38
1042.34	3421.35
1045.23	3640.46
1048.12	3893.79
1051.02	4063.06
1053.91	4419.94
1056.8	4628.37
1059.69	5014.64
1062.59	5466.35
1065.48	5878.38
1068.37	6300.6
1071.27	6781.8
1074.16	7365.74
1077.05	7863.88
1079.94	8456.75
1082.84	9009.62
1085.73	9507.87
1088.62	9976.86
1091.51	10402.4
1094.41	10874.7
1097.3	11286.7
1100.19	11674.9
1103.08	12068.7
1105.98	12381
1108.87	12850.4
1111.76	13131.6
1114.65	13479.8
1117.55	13772.6
1120.44	14082.8
1123.33	14253.8
1126.23	14545.9
1129.12	14713.6
1132.01	14972.6
1134.9	15136.6
1137.8	15282.8
1140.69	15440.6
1143.58	15685.3
1146.47	15746.4
1149.37	16001.5
1152.26	16081.4
1155.15	16383.3
1158.05	16415.2
1160.94	16618.7
1163.83	16802.9
1166.72	17017
1169.62	17260.4
1172.51	17308.2
1175.4	17494.8
1178.3	17647.9
1181.19	18041.6
1184.08	17979.3
1186.97	18174.2
1189.87	18289.3
1192.76	18409.6
1195.65	18618.3
1198.54	18768.9
1201.44	18970.5
1204.33	19035.5
1207.22	19213.5
1210.11	19461.2
1213.01	19683.7
1215.9	19854.2
1218.79	20108.7
1221.68	20231.8
1224.58	20572
1227.47	21061.3
1230.36	21181.3
1233.26	21684.9
1236.15	22118.1
1239.04	22392.8
1241.93	22865.7
1244.83	23495.8
1247.72	24186.8
1250.61	24843.3
1253.51	25684.3
1256.4	26515.8
1259.29	27506.3
1262.18	28504.8
1265.08	29581.1
1267.97	30711.4
1270.86	31849.7
1273.75	33355.3
1276.65	34748.6
1279.54	36128.9
1282.43	37701.7
1285.32	39303.5
