Measurement: Raman, 532 nm, unoriented, Raman Data Processed
Mineral: Stilpnomelane
Rruff sample: R110195
Ideal chemistry: (K,Ca,Na)(Fe^2+^,Mg,Al,Fe^3+^)_8_(Si,Al)_12_(O,OH)_36_nH_2_O
Locality: Broughton talc mine, Saint-Pierre-de-Broughton, Quebec, Canada
Source: Donald Doell
Description: Aggregates of dark green plates, 180 deg twin around (-2 0 3) = [0 1 2].
Raman shift (cm-1)	intensity
177.273	0
180.166	2.1861
183.059	1.56947
185.951	1.88532
188.844	5.23305
191.737	4.46677
194.629	5.28902
197.522	3.47447
200.415	4.17924
203.308	3.58471
206.2	3.06297
209.093	3.73798
211.986	4.25503
214.878	1.41715
217.771	1.12779
220.664	2.12148
223.556	3.70152
226.449	2.82069
229.342	0.958771
232.234	1.59441
235.127	0.594704
238.02	5.20875
240.913	1.66165
243.805	1.92681
246.698	2.08557
249.591	0.90992
252.483	3.61053
255.376	1.48134
258.269	2.30244
261.161	1.11005
264.054	2.34258
266.947	4.00121
269.84	2.41352
272.732	3.57333
275.625	3.55227
278.518	2.72321
281.41	2.07082
284.303	3.32115
287.196	4.22022
290.089	4.30244
292.981	4.32778
295.874	3.63959
298.767	3.63785
301.659	3.94023
304.552	5.23154
307.445	4.48146
310.337	3.8445
313.23	3.61688
316.123	2.41192
319.015	1.85476
321.908	1.49549
324.801	3.87312
327.694	1.98724
330.586	0.898792
333.479	0.615326
336.372	0.070423
339.264	1.31479
342.157	1.34422
345.05	1.44145
347.942	1.44418
350.835	1.09514
353.728	1.48482
356.621	2.55778
359.513	2.87476
362.406	2.83717
365.299	0.210178
368.191	3.49083
371.084	2.37379
373.977	3.55312
376.87	3.83237
379.762	6.19098
382.655	4.18806
385.548	8.68784
388.44	7.6352
391.333	9.21266
394.226	8.58015
397.118	8.85217
400.011	8.76048
402.904	6.42173
405.796	6.81225
408.689	7.75102
411.582	6.62851
414.475	5.45884
417.367	5.59165
420.26	1.55304
423.153	1.69206
426.045	2.21867
428.938	4.16675
431.831	4.55308
434.724	3.90184
437.616	1.39033
440.509	0.727383
443.402	1.50187
446.294	0.888008
449.187	0.868481
452.08	4.50637
454.972	5.46862
457.865	2.66706
460.758	3.40538
463.651	0.790096
466.543	1.79131
469.436	2.11428
472.329	0.50544
475.221	1.16048
478.114	0.636967
481.007	0.255955
483.899	0.525135
486.792	1.76655
489.685	1.72094
492.577	1.71852
495.47	2.20876
498.363	4.18286
501.256	2.45403
504.148	3.61573
507.041	5.05786
509.934	4.18677
512.826	3.74593
515.719	4.63389
518.612	4.64247
521.505	3.67391
524.397	5.66365
527.29	5.99967
530.183	6.40383
533.075	6.48165
535.968	3.21387
538.861	3.96219
541.753	4.91628
544.646	5.14822
547.539	2.64293
550.432	4.5492
553.324	5.41428
556.217	5.61851
559.11	5.27818
562.002	3.52819
564.895	3.67456
567.788	2.80643
570.68	1.91791
573.573	1.79322
576.466	0.125233
579.359	2.23808
582.251	0.292458
585.144	2.94383
588.037	0.784039
590.929	3.01018
593.822	1.88247
596.715	2.59179
599.607	0.986553
602.5	1.99567
605.393	1.89332
608.285	1.99196
611.178	0.167709
614.071	2.02531
616.964	2.6981
619.856	2.53592
622.749	0.595055
625.642	0.736641
628.534	0.335354
631.427	0.902382
634.32	2.48663
637.212	3.71728
640.105	5.36601
642.998	6.37491
645.891	5.97752
648.783	5.81338
651.676	4.68516
654.569	5.48076
657.461	6.20449
660.354	6.34014
663.247	7.59032
666.139	6.40074
669.032	6.6715
671.925	2.57746
674.818	3.83823
677.71	0.881992
680.603	2.04854
683.496	1.53035
686.388	0.125782
689.281	1.21677
692.174	1.50351
695.067	1.67429
697.959	2.19123
700.852	1.777
703.745	0.230797
706.637	1.28175
709.53	2.65394
712.423	1.10304
715.315	1.35554
718.208	1.05378
721.101	2.85282
723.994	1.88026
726.886	1.40716
729.779	2.44565
732.672	3.11952
735.564	0.389038
738.457	2.30422
741.35	2.43845
744.242	1.35643
747.135	1.01125
750.028	0.565536
752.92	1.56488
755.813	2.17921
758.706	2.81433
761.599	2.73798
764.491	2.57674
767.384	2.70102
770.277	2.76897
773.169	3.14762
776.062	2.02737
778.955	2.86564
781.847	0.760502
784.74	5.16991
787.633	3.5011
790.526	2.87885
793.418	3.65305
796.311	2.19712
799.204	1.02842
802.096	2.35609
804.989	2.44388
807.882	1.68261
810.774	2.40585
813.667	1.51509
816.56	0.638039
819.453	1.49009
822.345	0.944405
825.238	0.555592
828.131	0.028141
831.023	0.400497
833.916	1.80008
836.809	0.354668
839.702	1.42656
842.594	0.955376
845.487	0.883678
848.38	1.20532
851.272	0.42551
854.165	1.26471
857.058	0.602699
859.95	1.17625
862.843	0.013161
865.736	1.25588
868.629	0.38102
871.521	0.619881
874.414	0.663166
877.307	1.21407
880.199	0.272823
883.092	1.99429
885.985	1.40878
888.877	1.15085
891.77	2.2852
894.663	0.63089
897.556	2.02368
900.448	1.45018
903.341	1.17468
906.234	1.96385
909.126	1.27653
912.019	1.50606
914.912	0.74802
917.804	1.41934
920.697	3.04259
923.59	1.99597
926.482	5.26691
929.375	3.43837
932.268	3.2995
935.161	2.3288
938.053	3.88329
940.946	1.92729
943.839	1.82932
946.731	0.646122
949.624	0.780251
952.517	1.15587
955.409	1.22257
958.302	1.92811
961.195	1.86368
964.088	2.27247
966.98	0.693272
969.873	0.154877
972.766	1.27676
975.658	2.01226
978.551	2.17772
981.444	0.226936
984.337	0.44508
987.229	2.93648
990.122	1.48265
993.015	0.975319
995.907	0.84882
998.8	0.536461
1001.69	1.42857
1004.59	1.18717
1007.48	1.44623
1010.37	1.48521
1013.26	1.53462
1016.16	0.185436
1019.05	1.80254
1021.94	1.79079
1024.83	1.04066
1027.73	1.99546
1030.62	1.57926
1033.51	1.10361
1036.4	1.60456
1039.3	2.41491
1042.19	0.975494
1045.08	0.394768
1047.98	0.339302
1050.87	0.78833
1053.76	1.90926
1056.65	1.71484
1059.55	2.21733
1062.44	2.59262
1065.33	1.80794
1068.22	1.54256
1071.12	1.37102
1074.01	2.70386
1076.9	0.423122
1079.8	0.556561
1082.69	0.693195
1085.58	0.036766
1088.47	2.70905
1091.37	0.78442
1094.26	0.846306
1097.15	2.05129
1100.04	0.234364
1102.94	2.90151
1105.83	0.627083
1108.72	2.51558
1111.62	2.46155
1114.51	2.83777
1117.4	0.403152
1120.29	1.75944
1123.19	0.809059
1126.08	2.48974
1128.97	2.87749
1131.86	1.70351
1134.76	1.93624
1137.65	2.60367
1140.54	3.25832
1143.43	2.13893
1146.33	1.40949
1149.22	1.00915
1152.11	2.58789
1155.01	2.28988
1157.9	1.95995
1160.79	2.35243
1163.68	1.24737
1166.58	1.40595
1169.47	0.072453
1172.36	0.868893
1175.26	1.81372
1178.15	3.1415
1181.04	2.91021
1183.93	1.90783
1186.83	2.78439
1189.72	2.4171
1192.61	2.45113
1195.5	1.75851
1198.4	0.500355
1201.29	3.23272
1204.18	3.59373
1207.07	1.58802
1209.97	0.625229
1212.86	1.4284
1215.75	3.17372
1218.64	0.133339
1221.54	0.717148
1224.43	1.78452
1227.32	1.25433
1230.22	0.359936
1233.11	2.73227
1236	1.68296
1238.89	2.66753
1241.79	1.62565
1244.68	2.40327
1247.57	2.56349
1250.46	1.42235
1253.36	2.10608
1256.25	1.92697
1259.14	2.1114
1262.04	2.30623
1264.93	1.01708
1267.82	2.50402
1270.71	1.85937
1273.61	1.91868
1276.5	3.13958
1279.39	0.48106
1282.29	2.44585
1285.18	2.04032
1288.07	2.9348
1290.96	3.35181
1293.86	2.11769
1296.75	0.61993
1299.64	1.81119
1302.53	0.194351
