Measurement: Raman, 514 nm, unoriented, Raman Data Processed
Mineral: Straczekite
Rruff sample: R050325
Ideal chemistry: (Ca,K,Ba)V^4+^_2_V^5+^_6_O_20_3H_2_O
Locality: Union Carbide mine, Wilson Springs, Garland County, Arkansas, USA
Source: Marcus Origlieri
Description: Black lathlike fibers
Raman shift (cm-1)	intensity
112.419	0
116.615	297.622
120.809	528.832
125.002	596.354
129.192	884.889
133.379	1291.59
137.565	1645.5
141.749	2070.93
145.93	2453.75
150.11	2219.79
154.287	2111.55
158.462	1522.61
162.635	1051.35
166.805	753.673
170.974	490.962
175.141	195.397
179.305	76.631
183.467	67.95
187.627	122.673
191.785	48.161
195.941	36.834
200.095	47.672
204.246	145.947
208.396	63.998
212.543	18.247
216.689	16.872
220.832	26.112
224.973	35.808
229.112	94.023
233.249	346.642
237.383	362.041
241.516	628.47
245.646	841.074
249.775	1160.53
253.901	999.703
258.025	783.007
262.148	740.964
266.268	459.979
270.386	592.609
274.501	684.94
278.615	823.386
282.727	721.261
286.836	545.567
290.944	541.092
295.049	618.397
299.153	525.268
303.254	377.536
307.353	369.116
311.45	352.977
315.545	344.201
319.638	250.382
323.729	196.666
327.818	160.281
331.904	166.854
335.989	3.594
340.071	2.539
344.152	58.922
348.23	34.968
352.307	22.233
356.381	39.336
360.453	144.034
364.523	40.124
368.592	69.044
372.658	38.831
376.722	71.608
380.784	24.839
384.844	66.572
388.901	63.768
392.957	9.935
397.011	59.903
401.063	97.704
405.112	15.846
409.16	77.5
413.206	41.239
417.249	65.58
421.291	68.747
425.33	177.758
429.368	301.682
433.403	221.586
437.437	284.48
441.468	537.357
445.497	800.111
449.525	906.701
453.55	1111.12
457.573	1289.38
461.594	1469.49
465.614	1313.45
469.631	1129.28
473.646	1018
477.659	987.611
481.67	1142.13
485.679	1213.52
489.686	1218.42
493.692	1560.26
497.695	1578.31
501.696	1762.54
505.695	1568.19
509.692	1645.13
513.687	1682.09
517.68	1542.12
521.671	1434.42
525.66	1180.06
529.647	1174.51
533.632	1139.89
537.615	988.764
541.596	829.462
545.576	701.896
549.553	789.373
553.528	602.038
557.501	464.201
561.472	441.834
565.441	403.12
569.408	447.031
573.374	399.208
577.337	278.86
581.298	369.911
585.257	385.24
589.215	468.876
593.17	319.818
597.123	349.042
601.075	326.551
605.024	428.338
608.971	494.419
612.917	420.819
616.86	537.504
620.802	418.499
624.742	565.82
628.679	553.437
632.615	453.357
636.548	465.584
640.48	534.124
644.41	600.979
648.338	600.159
652.264	473.685
656.188	469.574
660.11	583.873
664.03	749.611
667.948	722.805
671.864	777.525
675.778	717.676
679.69	872.243
683.6	986.237
687.509	944.722
691.415	843.108
695.32	857.516
699.222	760.472
703.123	893.98
707.022	943.268
710.918	703.595
714.813	588.196
718.706	554.581
722.597	772.266
726.486	784.118
730.373	697.118
734.258	648.515
738.142	643.167
742.023	773.062
745.902	877.922
749.78	755.122
753.655	596.761
757.529	610.705
761.401	596.851
765.271	690.047
769.139	652.441
773.005	599.957
776.869	389.575
780.731	438.774
784.591	588.215
788.45	508.906
792.306	412.881
796.161	323.108
800.013	396.604
803.864	350.328
807.713	326.279
811.56	314.434
815.405	169.802
819.248	40.376
823.09	280.145
826.929	267.107
830.767	194.249
834.602	152.549
838.436	47.997
842.268	54.583
846.098	136.286
849.926	112.056
853.752	15.93
857.577	62.907
861.399	97.033
865.22	24.005
869.039	43.102
872.856	46.199
876.671	80.302
880.484	53.57
884.295	106.035
888.104	23.57
891.912	51.274
895.717	27.263
899.521	105.914
903.323	27.594
907.123	16.362
910.921	1.255
914.718	53.48
918.512	200.672
922.305	128.408
926.095	83.066
929.884	60.096
933.671	98.32
937.457	95.828
941.24	277.003
945.022	326.775
948.801	356.117
952.579	338.052
956.355	370.748
960.129	305.087
963.901	365.959
967.672	435.889
971.44	283.786
975.207	418.888
978.972	346.486
982.735	403.933
986.496	447.82
990.256	469.738
994.013	517.192
997.769	430.55
1001.52	368.842
1005.27	480.137
1009.02	651.432
1012.77	567.238
1016.52	500.473
1020.26	378.107
1024.01	194.922
1027.75	106.583
1031.49	75.891
1035.23	83.632
1038.96	115.029
1042.7	158.02
1046.43	83.488
1050.16	49.396
1053.89	18.024
1057.61	30.734
1061.34	40.942
1065.06	147.813
1068.78	91.997
1072.5	76.024
1076.22	111.873
1079.93	55.776
1083.65	52.161
1087.36	81.036
1091.07	98.67
1094.78	176.809
1098.49	101.586
1102.19	110.238
1105.9	48.799
1109.6	113.823
1113.3	76.468
1116.99	90.861
1120.69	73.783
1124.38	97.584
1128.08	51.872
1131.77	67.636
1135.46	75.005
1139.14	103.653
1142.83	122.766
1146.51	62.208
1150.19	167.23
1153.88	217.121
1157.55	145.702
1161.23	133.2
1164.9	88.141
1168.58	52.271
1172.25	106.072
1175.92	124.46
1179.59	133.886
1183.25	146.763
1186.92	137.554
1190.58	110.893
1194.24	69.636
1197.9	110.277
1201.55	193.15
1205.21	172.479
1208.86	204.699
1212.52	178.59
1216.16	154.645
1219.81	132.778
1223.46	109.971
1227.11	151.849
1230.75	155.36
1234.39	164.595
1238.03	217.846
1241.67	147.328
1245.3	79.276
1248.94	115.528
1252.57	126.266
1256.2	113.483
1259.83	140.753
1263.46	163.898
1267.08	176.417
1270.7	165.715
1274.33	62.31
1277.95	174.324
1281.57	70.573
1285.18	5.26
1288.8	41.98
1292.41	19.421
1296.02	118.144
1299.63	62.865
1303.24	78.881
1306.85	141.764
1310.45	39.819
1314.06	23.096
1317.66	35.388
1321.26	37.972
1324.86	40.336
1328.45	1.6
1332.05	163.505
1335.64	136.646
1339.23	153.515
1342.82	134.297
1346.41	129.795
1349.99	44.25
1353.58	48.873
1357.16	75.903
1360.74	32.447
1364.32	147.882
1367.9	129.154
1371.47	146.551
1375.05	195.611
1378.62	136.763
1382.19	124.979
1385.76	119.542
1389.33	81.519
1392.89	24.766
1396.45	17.195
1400.02	103.554
1403.58	98.117
1407.13	116.826
1410.69	177.301
1414.25	205.436
1417.8	168.884
1421.35	80.627
1424.9	117.398
1428.45	26.648
1432	36.556
1435.54	44.356
1439.09	97.619
1442.63	152.711
1446.17	220.802
1449.71	183.735
1453.24	244.432
1456.78	238.98
1460.31	82.233
1463.85	131.775
1467.38	145.578
1470.9	96.387
1474.43	40.906
1477.96	99.199
1481.48	114.746
1485	165.104
1488.52	249.432
1492.04	221.3
1495.56	136.214
1499.07	182.711
1502.59	191.557
1506.1	111.452
1509.61	12.114
1513.12	11.864
1516.62	31.805
1520.13	40.355
1523.63	71.658
1527.13	0
