Measurement: Raman, 780 nm, unoriented, Raman Data Processed
Mineral: Strashimirite
Rruff sample: R060142
Ideal chemistry: Cu^2+^_4_(As^5+^O_4_)_2_(OH)_2_2.5H_2_O
Locality: Majuba Hill, Pershing County, Nevada, USA
Source: Marcus Origlieri
Description: White to colorless fibrous or hair-like aggregate
Raman shift (cm-1)	intensity
111.852	0
115.227	1.29567
118.602	0.873464
121.977	2.20104
125.352	1.23022
128.726	1.09339
132.101	1.26414
135.476	2.06754
138.851	1.39709
142.226	1.66095
145.601	2.87191
148.975	1.60356
152.35	1.62824
155.725	1.11533
159.1	2.00502
162.475	1.03758
165.85	0.084833
169.224	0.723816
172.599	1.05091
175.974	0.481752
179.349	0.81911
182.724	1.37054
186.098	0.883055
189.473	0.552544
192.848	0.150062
196.223	0.231037
199.598	1.49679
202.972	0.163875
206.347	0.113037
209.722	1.99431
213.097	2.08411
216.472	1.82864
219.847	1.56465
223.221	2.43788
226.596	2.25932
229.971	1.27059
233.346	1.78375
236.721	3.08444
240.095	0.548632
243.47	1.91441
246.845	1.4484
250.22	1.54348
253.595	1.51895
256.969	0.130293
260.344	0.071126
263.719	0.8571
267.094	1.43329
270.469	0.988909
273.844	0.347116
277.218	0.668293
280.593	1.32813
283.968	0.444469
287.343	0.85016
290.718	0.076232
294.092	0.096061
297.467	1.55039
300.842	1.42936
304.217	0.864687
307.592	1.00455
310.967	0.587516
314.341	0.933229
317.716	1.19395
321.091	0.368351
324.466	0.084574
327.841	1.06761
331.216	2.22424
334.59	1.01963
337.965	0.718834
341.34	1.0359
344.715	1.50737
348.09	1.33528
351.464	1.4916
354.839	0.099583
358.214	1.87675
361.589	1.19626
364.964	1.22951
368.339	0.98168
371.713	1.22157
375.088	0.320206
378.463	0.219133
381.838	0.516955
385.213	1.54073
388.587	1.28641
391.962	0.181335
395.337	0.923642
398.712	1.80001
402.087	1.45044
405.462	1.05186
408.836	2.21376
412.211	2.97188
415.586	2.73287
418.961	1.60843
422.336	1.26736
425.71	1.39594
429.085	1.99554
432.46	0.27512
435.835	0.631885
439.21	2.04215
442.584	0.851433
445.959	1.0885
449.334	0.60007
452.709	0.427533
456.084	0.764574
459.459	1.45252
462.833	0.658398
466.208	1.75027
469.583	1.91763
472.958	1.04781
476.333	0.438709
479.707	0.94534
483.082	1.55906
486.457	1.03756
489.832	1.62907
493.207	1.0849
496.582	1.00113
499.956	1.26032
503.331	0.632655
506.706	1.71456
510.081	0.544097
513.456	1.02413
516.83	0.86745
520.205	0.898927
523.58	1.37795
526.955	1.24728
530.33	0.963644
533.705	0.921046
537.079	1.24878
540.454	1.09596
543.829	1.41288
547.204	1.02746
550.579	1.35864
553.953	1.70712
557.328	0.705978
560.703	0.892367
564.078	1.01128
567.453	1.55644
570.827	1.85916
574.202	0.448365
577.577	1.03663
580.952	0.509218
584.327	1.39362
587.702	0.827689
591.076	0.109028
594.451	1.21542
597.826	0.634024
601.201	0.749469
604.576	0.921223
607.951	0.914643
611.325	1.2732
614.7	0.064946
618.075	0.259549
621.45	1.48293
624.825	1.41313
628.199	1.40412
631.574	1.32798
634.949	0.907252
638.324	0.37331
641.699	1.35014
645.073	1.66744
648.448	1.27869
651.823	1.67403
655.198	0.270371
658.573	1.03805
661.948	1.24899
665.322	0.804869
668.697	1.50246
672.072	0.864377
675.447	1.4311
678.822	0.721554
682.197	1.18971
685.571	0.077877
688.946	1.93318
692.321	1.33515
695.696	0.421877
699.071	1.54511
702.445	0.715283
705.82	0.568111
709.195	1.22547
712.57	0.347787
715.945	0.925157
719.319	1.31931
722.694	0.454533
726.069	0.382323
729.444	1.1334
732.819	1.03251
736.193	0.864347
739.568	0.838255
742.943	0.552643
746.318	0.070127
749.693	0.081765
753.068	0.534062
756.442	0.140752
759.817	0.073639
763.192	0.617062
766.567	0.646479
769.942	1.17666
773.317	0.941019
776.691	0.603531
780.066	1.33506
783.441	0.272571
786.816	1.61857
790.191	0.864597
793.565	0.026374
796.94	1.32014
800.315	1.64163
803.69	1.38124
807.065	2.16894
810.439	1.52648
813.814	1.39083
817.189	3.29853
820.564	2.35981
823.939	3.17497
827.314	2.07632
830.688	3.61714
834.063	4.52652
837.438	4.40577
840.813	5.43969
844.188	6.12033
847.562	6.85499
850.937	6.34218
854.312	6.4205
857.687	5.11652
861.062	3.66267
864.437	3.2054
867.811	2.27349
871.186	2.03758
874.561	1.85207
877.936	0.498441
881.311	1.04567
884.686	1.57411
888.06	1.1183
891.435	0.622251
894.81	0.691578
898.185	0.445385
901.56	0.92677
904.934	0.761171
908.309	0.405263
911.684	0.330225
915.059	0.066718
918.434	1.3895
921.808	1.44686
925.183	0.806591
928.558	0.763318
931.933	1.40026
935.308	0.517488
938.683	0.170049
942.057	1.25677
945.432	0.588796
948.807	1.11923
952.182	0.690839
955.557	1.03346
958.932	1.55037
962.306	0.96589
965.681	0.553611
969.056	0.808894
972.431	1.19813
975.806	1.08376
979.18	0.871023
982.555	0.768731
985.93	0.575558
989.305	1.33942
992.68	0.028696
996.054	0.208934
999.429	0.151798
1002.8	0.557857
1006.18	0.310674
1009.55	0.799294
1012.93	1.30256
1016.3	0.633964
1019.68	1.13511
1023.05	0.294811
1026.43	0.309436
1029.8	0.573962
1033.18	1.53387
1036.55	1.67003
1039.93	0.066118
1043.3	0.850679
1046.68	1.01643
1050.05	1.44809
1053.43	0.599149
1056.8	1.04644
1060.18	0.956003
1063.55	1.62857
1066.93	1.13056
1070.3	1.50157
1073.67	0.51619
1077.05	0.933745
1080.42	1.43309
1083.8	0.064193
1087.17	0.123746
1090.55	0.986466
1093.92	1.45009
1097.3	0.962786
1100.67	0.878464
1104.05	0.988724
1107.42	1.16765
1110.8	0.366549
1114.17	0.579815
1117.55	1.33007
1120.92	1.54324
1124.3	1.98728
1127.67	0.109157
1131.05	0.629835
1134.42	1.37577
1137.8	0.889164
1141.17	1.07505
1144.55	0.205781
1147.92	1.39878
1151.3	1.51939
1154.67	0.343021
1158.05	1.04008
1161.42	0.48712
1164.8	0.436026
1168.17	1.77331
1171.55	0.847647
1174.92	0.807639
1178.3	0.553175
1181.67	0.248865
1185.04	0.602206
1188.42	1.68363
1191.79	1.14061
1195.17	0.730871
1198.54	0.137571
1201.92	0.515962
1205.29	1.06859
1208.67	0.89322
1212.04	2.07643
1215.42	0.278763
1218.79	2.00532
1222.17	1.18996
1225.54	0.697095
1228.92	0.795478
1232.29	0.922642
1235.67	0.048682
1239.04	1.8097
1242.42	0.613575
1245.79	0.738146
1249.17	0.113712
1252.54	1.66265
1255.91	0.293647
1259.29	1.11771
1262.66	1.45384
1266.04	0.166059
1269.41	1.7069
1272.79	0.895218
1276.16	1.44509
1279.54	0.243067
1282.91	0.284104
