Measurement: Raman, 780 nm, unoriented, Raman Data Processed
Mineral: Strashimirite
Rruff sample: R060335
Ideal chemistry: Cu^2+^_4_(As^5+^O_4_)_2_(OH)_2_2.5H_2_O
Locality: Burrus mine, Pyramid District, Washoe County, Nevada, USA
Source: Michael Scott
Description: Light green tufts on green platy chalcophyllite
Raman shift (cm-1)	intensity
115.227	2.94883
118.602	1.28961
121.977	2.17271
125.352	3.00607
128.726	1.79567
132.101	2.15645
135.476	2.4586
138.851	2.3999
142.226	2.05281
145.601	1.12152
148.975	2.5737
152.35	2.43243
155.725	1.35546
159.1	2.04509
162.475	2.22657
165.85	1.77935
169.224	1.26204
172.599	1.72032
175.974	0.927106
179.349	2.24694
182.724	2.29128
186.098	1.14077
189.473	2.34883
192.848	1.65908
196.223	1.56539
199.598	2.03512
202.972	2.31455
206.347	0.763413
209.722	1.4386
213.097	1.49394
216.472	1.69088
219.847	2.23942
223.221	1.76838
226.596	1.0313
229.971	1.03745
233.346	0.572998
236.721	1.45726
240.095	1.33499
243.47	1.84018
246.845	1.56403
250.22	1.34356
253.595	1.66935
256.969	0.897437
260.344	1.37653
263.719	1.10033
267.094	0.886788
270.469	0.796736
273.844	0.922014
277.218	1.28133
280.593	1.67459
283.968	1.06644
287.343	0.390207
290.718	1.0223
294.092	1.815
297.467	1.48302
300.842	1.155
304.217	1.12581
307.592	-0.148327
310.967	1.67085
314.341	0.703379
317.716	0.990731
321.091	1.19087
324.466	1.51663
327.841	0.967287
331.216	0.698516
334.59	0.652637
337.965	0.731823
341.34	1.44566
344.715	0.868995
348.09	0.593244
351.464	0.905325
354.839	1.36235
358.214	0.894314
361.589	1.16269
364.964	0.691188
368.339	-0.22462
371.713	0.342685
375.088	0.779021
378.463	1.01234
381.838	1.33519
385.213	0.74007
388.587	0.568282
391.962	1.40341
395.337	1.68888
398.712	0.758296
402.087	1.81979
405.462	1.33524
408.836	0.643466
412.211	0.539826
415.586	-0.143805
418.961	1.1511
422.336	0.749099
425.71	1.05362
429.085	1.44407
432.46	0.504555
435.835	1.381
439.21	0.440322
442.584	0.369608
445.959	0.976405
449.334	1.10238
452.709	0.902167
456.084	0.917685
459.459	0.756737
462.833	0.788943
466.208	0.471587
469.583	1.39011
472.958	0.87792
476.333	0.880292
479.707	1.32856
483.082	0.577715
486.457	0.902526
489.832	0.386834
493.207	-0.0116597
496.582	1.30705
499.956	0.767671
503.331	0.755689
506.706	0.540229
510.081	1.30525
513.456	1.1675
516.83	0.878972
520.205	0.406648
523.58	-0.175482
526.955	0.0290545
530.33	0.615555
533.705	0.522726
537.079	0.521509
540.454	0.0582946
543.829	1.12097
547.204	-0.0990476
550.579	1.27265
553.953	0.506715
557.328	0.625326
560.703	1.42032
564.078	-0.455058
567.453	0.571522
570.827	0.575078
574.202	0.887992
577.577	0.999814
580.952	-0.314778
584.327	0.65294
587.702	0.410374
591.076	-0.132294
594.451	0.0656514
597.826	0.791109
601.201	0.705261
604.576	1.08207
607.951	0.978965
611.325	0.843778
614.7	0.92439
618.075	0.252215
621.45	0.47418
624.825	0.815416
628.199	0.143672
631.574	0.644296
634.949	0.734564
638.324	-0.360709
641.699	0.864228
645.073	0.561724
648.448	1.02285
651.823	-0.0796202
655.198	0.0181596
658.573	0.211849
661.948	0.498212
665.322	0.645214
668.697	0.504919
672.072	0.21499
675.447	-0.315579
678.822	1.36957
682.197	0.652112
685.571	0.155082
688.946	-0.0192448
692.321	0.522159
695.696	0.724017
699.071	0.46149
702.445	0.195758
705.82	0.540358
709.195	0.0946673
712.57	0.398766
715.945	0.805139
719.319	0.0775706
722.694	0.0738692
726.069	-0.0638477
729.444	0.659572
732.819	0.744623
736.193	0.889932
739.568	0.879361
742.943	1.36241
746.318	-0.0194559
749.693	0.535794
753.068	0.271549
756.442	1.3258
759.817	-0.360721
763.192	1.04211
766.567	0.252145
769.942	0.616062
773.317	1.26145
776.691	0.28796
780.066	0.442116
783.441	0.89899
786.816	-0.0745127
790.191	0.983354
793.565	-0.84892
796.94	-0.0824366
800.315	0.175546
803.69	0.871178
807.065	0.582444
810.439	1.68822
813.814	1.26393
817.189	1.1514
820.564	1.13671
823.939	0.509816
827.314	1.61896
830.688	0.588392
834.063	1.16331
837.438	1.32747
840.813	1.46388
844.188	1.70945
847.562	1.17
850.937	1.3608
854.312	0.971198
857.687	1.62974
861.062	1.33876
864.437	0.810887
867.811	1.7579
871.186	1.32823
874.561	0.195008
877.936	0.0322247
881.311	0.678675
884.686	0.248261
888.06	0.755454
891.435	0.165948
894.81	0.251614
898.185	0.579015
901.56	-1.09642
904.934	-0.093917
908.309	-0.351272
911.684	0.84139
915.059	0.380484
918.434	0.498892
921.808	-0.0505953
925.183	0.442437
928.558	1.05995
931.933	0.930464
935.308	0.767249
938.683	0.363216
942.057	1.62586
945.432	-0.389081
948.807	-0.129522
952.182	0.394002
955.557	0.445881
958.932	0.0967805
962.306	-0.186778
965.681	0.240674
969.056	0.465915
972.431	1.02685
975.806	0.687011
979.18	0.332657
982.555	-0.245346
985.93	0.858329
989.305	0.997862
992.68	0.271894
996.054	0.0495312
999.429	0.272314
1002.8	0.154953
1006.18	0.254974
1009.55	1.21032
1012.93	0.149154
1016.3	-0.77233
1019.68	1.28885
1023.05	-0.294984
1026.43	0.808228
1029.8	0.567318
1033.18	0.239972
1036.55	0.339993
1039.93	0.183578
1043.3	0.667133
1046.68	0.318007
1050.05	0.334402
1053.43	0.234437
1056.8	-0.577977
1060.18	-0.521584
1063.55	0.128783
1066.93	-0.160882
1070.3	0.384884
1073.67	0.258339
1077.05	0.0895038
1080.42	-0.404026
1083.8	0.110946
1087.17	0.641219
1090.55	0.0389682
1093.92	-0.394626
1097.3	1.16363
1100.67	-0.321062
1104.05	-0.513698
1107.42	0.335636
1110.8	0.0558723
1114.17	0.08807
1117.55	0.354811
1120.92	-0.531537
1124.3	0.258621
1127.67	0.31203
1131.05	0.371791
1134.42	-0.316482
1137.8	0.856037
1141.17	0.0541324
1144.55	-0.615914
1147.92	-0.100517
1151.3	-0.109276
1154.67	0.064414
1158.05	0.617552
1161.42	0.097485
1164.8	0.196345
1168.17	-0.356201
1171.55	-0.159299
1174.92	0.161677
1178.3	-0.431191
1181.67	0.368197
1185.04	-0.273867
1188.42	-0.330884
1191.79	0.0523077
1195.17	-0.262793
1198.54	0.772684
1201.92	0.709786
1205.29	0.885515
1208.67	-0.147964
1212.04	-0.585445
1215.42	0.977239
1218.79	0.347307
1222.17	-0.863271
1225.54	-0.595356
1228.92	0.756977
1232.29	-0.540051
1235.67	1.02078
1239.04	-0.248446
1242.42	0.185426
1245.79	0.0981015
1249.17	0.194238
1252.54	0.255853
1255.91	0.886893
1259.29	-0.0566422
1262.66	-0.589637
1266.04	-0.0873358
1269.41	1.45774
1272.79	0.421866
1276.16	0.74383
1279.54	0.720539
1282.91	-0.301587
