Measurement: Raman, 532 nm, unoriented, Raman Data Processed
Mineral: Stromeyerite
Rruff sample: R060909
Ideal chemistry: Cu^1+^Ag^1+^S^2-^
Locality: Gowganda, Ontario, Canada
Source: Royal Ontario Museum
Description: Grey, metallic, pseudohexagonal flakes, conchoidal fracture
Measured chemistry: Ag_1.00_Cu_1.00_S_1.00_
Raman shift (cm-1)	intensity
196.251	0
199.144	10.1788
202.036	0.723145
204.929	6.28174
207.822	10.1478
210.714	41.0236
213.607	13.5289
216.5	32.1168
219.393	38.0131
222.285	63.2542
225.178	18.3406
228.071	53.4001
230.963	34.3774
233.856	52.4004
236.749	46.9098
239.642	35.5024
242.534	68.4781
245.427	49.3792
248.32	48.865
251.212	38.3796
254.105	44.5479
256.998	40.013
259.89	42.1775
262.783	60.988
265.676	49.2983
268.568	31.9103
271.461	12.2342
274.354	20.7801
277.247	37.0694
280.139	8.77979
283.032	28.0917
285.925	2.00952
288.817	6.56232
291.71	5.55457
294.603	17.9953
297.495	4.45508
300.388	7.20715
303.281	14.9037
306.174	8.08075
309.066	20.6051
311.959	13.7278
314.852	27.9673
317.744	0.172546
320.637	26.2155
323.53	20.7141
326.422	7.42358
329.315	26.7143
332.208	24.4856
335.101	9.41583
337.993	26.8655
340.886	11.4675
343.779	16.0151
346.671	28.2026
349.564	26.3961
352.457	21.3664
355.349	32.78
358.242	22.2227
361.135	4.40466
364.027	50.6215
366.92	14.8464
369.813	2.54846
372.706	7.28314
375.598	40.494
378.491	6.67291
381.384	36.2391
384.276	17.3962
387.169	16.1019
390.062	10.737
392.954	21.6831
395.847	26.6816
398.74	12.5226
401.633	12.4034
404.525	47.2588
407.418	5.82037
410.311	13.4383
413.203	3.17407
416.096	19.663
418.989	27.4659
421.881	32.2921
424.774	24.7947
427.667	18.0025
430.56	31.9103
433.452	0.102051
436.345	36.1824
439.238	30.2475
442.13	24.1457
445.023	36.3784
447.916	15.0834
450.808	38.51
453.701	7.82764
456.594	25.6101
459.486	14.736
462.379	47.4311
465.272	38.8549
468.165	39.9302
471.057	27.3104
473.95	39.9379
476.843	5.67023
479.735	29.2499
482.628	11.5917
485.521	7.85486
488.413	22.1339
491.306	1.99268
494.199	26.3774
497.092	14.7752
499.984	23.9831
502.877	3.0658
505.77	6.37872
508.662	5.09741
511.555	29.4293
514.448	17.1491
517.341	33.637
520.233	47.2839
523.126	30.3207
526.019	32.4139
528.911	40.1968
531.804	44.7943
534.697	15.9122
537.589	12.6659
540.482	6.58667
543.375	32.3847
546.268	28.0301
549.16	5.12946
552.053	28.0763
554.946	52.516
557.838	13.4643
560.731	13.4404
563.624	23.4725
566.516	22.0903
569.409	13.6656
572.302	27.6135
575.194	31.601
578.087	44.6925
580.98	35.7308
583.872	34.1664
586.765	16.2938
589.658	25.3174
592.551	13.9308
595.443	33.2095
598.336	41.4094
601.229	57.7211
604.121	1.59027
607.014	26.6861
609.907	32.0534
612.799	34.3474
615.692	41.9418
618.585	29.1587
621.477	48.2006
624.37	31.5325
627.263	47.4838
630.156	32.3901
633.048	62.5455
635.941	48.088
638.834	26.8144
641.726	20.2949
644.619	31.5746
647.512	1.28668
650.404	20.7354
653.297	12.7656
656.19	16.9451
659.083	34.2689
661.975	41.9446
664.868	46.2401
667.761	17.9112
670.653	13.5692
673.546	5.00928
676.439	5.71252
679.332	12.3121
682.224	40.7035
685.117	6.39593
688.01	51.9995
690.902	16.0972
693.795	7.83325
696.688	33.8637
699.58	46.7386
702.473	7.32404
705.366	28.9695
708.259	9.13153
711.151	8.34802
714.044	20.8595
716.937	10.5502
719.829	41.6068
722.722	10.0673
725.615	39.0187
728.507	16.2748
731.4	35.4746
734.293	34.8745
737.185	29.8038
740.078	13.2202
742.971	10.6334
745.864	16.5881
748.756	2.18915
751.649	8.11981
754.542	23.7553
757.434	30.8857
760.327	4.34833
763.22	43.0131
766.112	30.1939
769.005	26.9487
771.898	15.7391
774.79	31.3101
777.683	37.0672
780.576	22.1739
783.469	41.0154
786.361	26.5714
789.254	1.39038
792.147	13.3839
795.039	52.001
797.932	39.1412
800.825	65.3532
803.717	33.1902
806.61	38.9496
809.503	11.1691
812.396	47.0938
815.288	7.16638
818.181	28.1324
821.074	27.9933
823.966	16.7855
826.859	60.4895
829.752	29.2592
832.644	8.70953
835.537	35.9013
838.43	2.95978
841.323	14.2086
844.215	14.9886
847.108	37.3795
850.001	26.5138
852.893	17.9476
855.786	12.4325
858.679	25.5497
861.571	49.9074
864.464	9.46771
867.357	24.2518
870.25	22.8592
873.142	13.3408
876.035	21.4266
878.928	58.9252
881.82	23.9811
884.713	22.4648
887.606	13.9305
890.498	28.5677
893.391	48.0861
896.284	30.0801
899.177	15.6941
902.069	57.0583
904.962	45.4761
907.855	2.90607
910.747	10.3821
913.64	54.9804
916.533	21.15
919.425	22.3692
922.318	60.0234
925.211	48.7128
928.104	15.2004
930.996	45.7289
933.889	48.705
936.782	8.48218
939.674	58.766
942.567	50.5541
945.46	24.1569
948.352	46.421
951.245	19.2421
954.138	40.6086
957.03	21.1327
959.923	6.42248
962.816	48.3783
965.709	14.7853
968.601	14.1948
971.494	33.3052
974.387	5.02173
977.279	74.9322
980.172	26.1757
983.065	50.7073
985.957	31.0298
988.85	45.4258
991.743	13.8735
994.635	31.5101
997.528	21.1176
1000.42	27.0317
1003.31	2.68835
1006.21	40.0316
1009.1	60.3062
1011.99	36.0376
1014.88	19.6643
1017.78	45.6483
1020.67	10.1491
1023.56	59.2557
1026.45	32.7175
1029.35	3.74792
1032.24	53.2953
1035.13	17.7817
1038.03	89.6549
1040.92	44.4297
1043.81	23.4624
1046.7	59.9784
1049.6	46.5884
1052.49	21.0795
1055.38	27.6668
1058.28	17.9268
1061.17	32.1985
1064.06	7.74829
1066.95	66.7198
1069.85	15.6786
1072.74	15.3419
1075.63	49.9501
1078.52	19.6851
1081.42	8.32373
1084.31	43.0652
1087.2	31.4565
1090.09	13.0546
1092.99	14.8699
1095.88	43.7413
1098.77	24.1838
1101.66	25.1614
1104.56	1.58362
1107.45	32.6406
1110.34	14.3095
1113.24	13.5303
1116.13	1.95837
1119.02	11.3823
1121.91	1.26709
1124.81	17.8661
1127.7	38.2398
1130.59	33.1654
1133.48	13.7349
1136.38	6.68787
1139.27	34.7632
1142.16	22.5806
1145.06	30.8367
1147.95	11.7626
1150.84	27.2044
1153.73	25.9624
1156.63	20.6949
1159.52	52.8133
1162.41	27.2373
1165.31	27.526
1168.2	40.9088
1171.09	21.8969
1173.98	6.4458
1176.88	9.0708
1179.77	32.0604
1182.66	48.6324
1185.55	3.49475
1188.45	32.3911
1191.34	53.0341
1194.23	40.7872
1197.12	15.2293
1200.02	23.6108
1202.91	52.8136
1205.8	20.1381
1208.69	25.2664
1211.59	39.7559
1214.48	19.4247
1217.37	25.39
1220.27	22.7081
1223.16	41.6829
1226.05	25.9374
1228.94	15.4564
1231.84	51.7023
1234.73	55.8861
1237.62	46.8998
1240.52	49.0204
1243.41	51.977
1246.3	40.8687
1249.19	76.4689
1252.09	76.4904
1254.98	21.4482
1257.87	44.7833
1260.76	54.6187
1263.66	6.40613
1266.55	30.2942
1269.44	47.7721
1272.33	41.6097
1275.23	0.117432
