Measurement: Raman, 785 nm, unoriented, Raman Data Processed
Mineral: Stromeyerite
Rruff sample: R060909
Ideal chemistry: Cu^1+^Ag^1+^S^2-^
Locality: Gowganda, Ontario, Canada
Source: Royal Ontario Museum
Description: Grey, metallic, pseudohexagonal flakes, conchoidal fracture
Measured chemistry: Ag_1.00_Cu_1.00_S_1.00_
Raman shift (cm-1)	intensity
166.846	0
169.739	89.3989
172.632	55.4209
175.524	135.069
178.417	44.8799
181.31	4.27197
184.203	37.7964
187.095	89.624
189.988	79.96
192.881	47.4902
195.773	179.967
198.666	238.117
201.559	322.327
204.452	272.528
207.344	324.853
210.237	344.692
213.13	370.362
216.022	427.602
218.915	377.648
221.808	522.72
224.7	589.019
227.593	633.883
230.486	692.803
233.379	709.767
236.271	793.594
239.164	738.861
242.057	813.522
244.949	731.35
247.842	682.631
250.735	649.455
253.627	907.143
256.52	560.507
259.413	505.524
262.305	454.897
265.198	340.421
268.091	374.945
270.984	252.106
273.876	187.955
276.769	182.884
279.662	218.051
282.554	186.121
285.447	238.88
288.34	100.872
291.233	43.375
294.125	7.84863
297.018	51.7676
299.911	99.707
302.803	92.7207
305.696	116.602
308.589	211.639
311.481	118.924
314.374	64.5205
317.267	0.615234
320.159	27.9824
323.052	6.87695
325.945	69.8281
328.838	97.3633
331.73	132.171
334.623	50.3818
337.516	0.827148
340.408	6.90234
343.301	0.25293
346.194	92.3838
349.087	123.923
351.979	121.122
354.872	182.158
357.765	78.5215
360.657	38.0801
363.55	48.4297
366.443	119.232
369.335	56.1211
372.228	100.189
375.121	342.312
378.014	146.209
380.906	87.8975
383.799	53.3066
386.692	46.4062
389.584	28.2979
392.477	137.741
395.37	129.045
398.262	141.032
401.155	106.513
404.048	109.29
406.941	30.75
409.833	12.749
412.726	29.8857
415.619	46.2754
418.511	144.53
421.404	203.269
424.297	71.293
427.19	160.815
430.082	117.144
432.975	102.661
435.868	49.3281
438.76	46.0039
441.653	124.292
444.546	144.788
447.438	157.39
450.331	133.815
453.224	166.648
456.116	171.024
459.009	109.247
461.902	145.579
464.795	135.179
467.687	127.237
470.58	80.5156
473.473	72.2471
476.365	60.999
479.258	22.4883
482.151	76.917
485.043	88.874
487.936	91.4853
490.829	213.876
493.722	100.21
496.614	147.092
499.507	62.5264
502.4	88.4453
505.292	1.7666
508.185	114.095
511.078	58.084
513.971	220.561
516.863	157.584
519.756	129.291
522.649	137.185
525.541	138.787
528.434	57.6543
531.327	102.936
534.219	140.353
537.112	182.935
540.005	172.647
542.898	114.033
545.79	182.978
548.683	163.037
551.576	114.688
554.468	112.309
557.361	151.389
560.254	129.721
563.146	136.182
566.039	90.4668
568.932	150.143
571.824	35.5508
574.717	34.8301
577.61	34.2129
580.503	115.314
583.395	107.115
586.288	93.3809
589.181	41.7148
592.073	40.0273
594.966	12.7305
597.859	52.4707
600.751	23.4316
603.644	66.6328
606.537	37.1406
609.43	90.6348
612.322	111.992
615.215	192.574
618.108	74.7168
621	49.4824
623.893	119.508
626.786	47.4629
629.678	182.113
632.571	71.9414
635.464	103.611
638.357	188.326
641.249	68.5059
644.142	86.8867
647.035	65.5371
649.927	86.3086
652.82	118.457
655.713	184.553
658.606	70.2832
661.498	193.523
664.391	71.9199
667.284	3.38672
670.176	119.144
673.069	114.059
675.962	266.344
678.854	201.904
681.747	223.99
684.64	86.9961
687.533	77.0508
690.425	118.387
693.318	90.1426
696.211	203.969
699.103	196.133
701.996	100.246
704.889	118.606
707.781	76.1641
710.674	85.4434
713.567	143.219
716.46	194.014
719.352	167.426
722.245	150.481
725.138	262.26
728.03	32.6465
730.923	6.02344
733.816	30.916
736.708	56.6836
739.601	63.334
742.494	210.674
745.386	41.166
748.279	268.348
751.172	164.039
754.065	218.664
756.957	99.9062
759.85	152.262
762.743	19.4883
765.635	102.363
768.528	169.621
771.421	72.7812
774.313	141.797
777.206	87.8516
780.099	121.394
782.992	209.039
785.884	173.043
788.777	343.102
791.67	245.422
794.562	136.051
797.455	241.375
800.348	225.824
803.24	132.383
806.133	176.711
809.026	209.453
811.919	229.539
814.811	258.156
817.704	197.316
820.597	221.914
823.489	214.953
826.382	150.742
829.275	99.3125
832.168	192.168
835.06	240.484
837.953	227.125
840.846	51.2812
843.738	105.066
846.631	172.418
849.524	186.106
852.416	153.805
855.309	93.9102
858.202	217.516
861.095	213.535
863.987	270.664
866.88	64.3398
869.773	79.2773
872.665	48.2695
875.558	288.941
878.451	173.258
881.343	396.102
884.236	198.035
887.129	227.402
890.021	191.086
892.914	206.832
895.807	54.1953
898.7	4.48828
901.592	391.481
904.485	149.969
907.378	273
910.27	292.375
913.163	221.949
916.056	202.684
918.949	42.3086
921.841	206.996
924.734	139.074
927.627	345.992
930.519	586.652
933.412	325.402
936.305	383.809
939.197	194.883
942.09	140.797
944.983	96.6758
947.876	91.6602
950.768	123.391
953.661	339.137
956.554	275.324
959.446	289.387
962.339	409.066
965.232	345.981
968.125	475.981
971.017	324.18
973.91	336.117
976.803	198.465
979.695	188.992
982.588	65.8242
985.481	6.14062
988.373	33.1211
991.266	22.7656
994.159	87.3359
997.052	155.891
999.944	386.203
1002.84	415.965
1005.73	316.766
1008.62	379.797
1011.51	219.781
1014.41	288.602
1017.3	196.023
1020.19	236.375
1023.09	288.555
1025.98	392.273
1028.87	304.305
1031.76	434.484
1034.66	431.945
1037.55	367.82
1040.44	295.734
1043.34	366.227
1046.23	201.469
1049.12	167.734
1052.01	66.3828
1054.91	418.508
1057.8	384.195
1060.69	307.188
1063.58	322.422
1066.48	114.375
1069.37	245.461
1072.26	279.547
1075.15	35.6172
1078.05	100.617
1080.94	95.4219
1083.83	27.6172
1086.72	115.125
1089.62	76.4609
1092.51	287.445
1095.4	465.344
1098.3	450.133
1101.19	421.234
1104.08	235.617
1106.97	64.0156
1109.87	332.703
1112.76	693.508
1115.65	414.945
1118.55	444.93
1121.44	438.828
1124.33	445.617
1127.22	399.609
1130.12	479.133
1133.01	283.547
1135.9	107.227
1138.79	535.062
1141.69	339.336
1144.58	238.039
1147.47	230.852
1150.37	575.68
1153.26	313.25
1156.15	319.445
1159.04	670.547
1161.93	456.961
1164.83	615.461
1167.72	478.219
1170.61	394.242
1173.51	17.8594
1176.4	200.93
1179.29	163.922
1182.18	153.562
1185.08	90.0156
1187.97	150.383
1190.86	407.789
1193.76	181.609
1196.65	394
1199.54	598.742
1202.43	428.797
1205.33	116.953
1208.22	9.20312
1211.11	269.555
1214	263.578
1216.9	720.727
1219.79	815.742
1222.68	869.789
1225.58	577.375
1228.47	498.461
1231.36	308
1234.25	394.5
1237.15	271.234
1240.04	493.273
1242.93	552.438
1245.82	480.727
1248.72	285.406
1251.61	311.57
1254.5	83.5469
1257.39	139.461
1260.29	472.883
1263.18	103.516
