Measurement: Raman, 780 nm, unoriented, Raman Data Processed
Mineral: Stutzite
Rruff sample: R070701
Ideal chemistry: Ag_4.64-4.76_Te_3_
Locality: Klondike mine, Saguache County, Colorado, USA
Source: Michael Scott
Description: Black, highly reflective, chonchoidal fracture, blebs scattered throughout the matrix, associated with altaite, R060692
Measured chemistry: Ag_4.94_Te_3.00_
Raman shift (cm-1)	intensity
145.132	0
148.025	0.256052
150.918	0.040233
153.81	0.596928
156.703	0.183059
159.596	0.184762
162.488	0.182935
165.381	0.152511
168.274	0.643178
171.167	0.192008
174.059	0.137537
176.952	0.149284
179.845	0.298834
182.737	0.294044
185.63	0.135308
188.523	0.048207
191.416	0.297415
194.308	0.358494
197.201	0.027523
200.094	0.007758
202.986	0.330989
205.879	0.167776
208.772	0.125432
211.664	0.105094
214.557	0.138081
217.45	0.342543
220.343	0.522066
223.235	0.148638
226.128	0.212583
229.021	0.61447
231.913	0.454368
234.806	0.364909
237.699	0.39244
240.591	0.316039
243.484	0.020274
246.377	0.53334
249.269	0.405323
252.162	0.379054
255.055	0.551282
257.948	0.357665
260.84	0.109505
263.733	0.605292
266.626	0.453644
269.518	0.598215
272.411	0.192105
275.304	0.31861
278.197	0.20365
281.089	0.332038
283.982	0.590751
286.875	0.24925
289.767	0.489018
292.66	0.602263
295.553	0.280021
298.445	0.446169
301.338	0.295147
304.231	0.364943
307.123	0.366457
310.016	0.289418
312.909	0.187351
315.802	0.164281
318.694	0.251317
321.587	0.09506
324.48	0.172015
327.372	0.088786
330.265	0.057821
333.158	0.160578
336.05	0.154825
338.943	0.29958
341.836	0.072353
344.729	0.112384
347.621	0.154311
350.514	0.077386
353.407	0.377952
356.299	0.360288
359.192	0.188068
362.085	0.366255
364.978	0.17177
367.87	0.497204
370.763	0.088497
373.656	0.280655
376.548	0.233144
379.441	0.214985
382.334	0.024726
385.226	0.438041
388.119	0.146606
391.012	0.308844
393.904	0.364895
396.797	0.294035
399.69	0.181217
402.583	0.119741
405.475	0.275213
408.368	0.266013
411.261	0.318451
414.153	0.252441
417.046	0.208999
419.939	0.193667
422.832	0.298953
425.724	0.158012
428.617	0.004895
431.51	0.070342
434.402	0.414083
437.295	0.03709
440.188	0.284141
443.08	0.305517
445.973	0.210965
448.866	0.255421
451.759	0.350808
454.651	0.466801
457.544	0.490598
460.437	0.335373
463.329	0.281099
466.222	0.21712
469.115	0.105577
472.007	0.486898
474.9	0.18173
477.793	0.260277
480.685	0.175731
483.578	0.25131
486.471	0.167112
489.364	0.211797
492.256	0.180231
495.149	0.35057
498.042	0.166637
500.934	0.052418
503.827	0.420984
506.72	0.340264
509.613	0.029288
512.505	0.305907
515.398	0.038626
518.291	0.280719
521.183	0.090796
524.076	0.257952
526.969	0.13095
529.861	0.122807
532.754	0.201207
535.647	0.347995
538.539	0.241964
541.432	0.201356
544.325	0.011341
547.218	0.321768
550.11	0.332297
553.003	0.522194
555.896	0.401604
558.788	0.427009
561.681	0.149122
564.574	0.299801
567.466	0.293606
570.359	0.492408
573.252	0.270953
576.145	0.386099
579.037	0.250022
581.93	0.362061
584.823	0.268526
587.715	0.171237
590.608	0.24638
593.501	0.145494
596.394	0.462989
599.286	0.138197
602.179	0.069724
605.072	0.253862
607.964	0.148208
610.857	0.120808
613.75	0.056544
616.642	0.187363
619.535	0.221468
622.428	0.125018
625.321	0.302566
628.213	0.329729
631.106	0.20288
633.999	0.347297
636.891	0.193877
639.784	0.396892
642.677	0.273102
645.569	0.621673
648.462	0.494144
651.355	0.27313
654.247	0.182931
657.14	0.438155
660.033	0.427164
662.926	0.13156
665.818	0.307788
668.711	0.409604
671.604	0.231174
674.496	0.215339
677.389	0.037971
680.282	0.186599
683.174	0.376172
686.067	0.238963
688.96	0.046468
691.853	0.302412
694.745	0.374986
697.638	0.25029
700.531	0.363359
703.423	0.19724
706.316	0.339291
709.209	0.334595
712.101	0.057382
714.994	0.246319
717.887	0.266391
720.78	0.200383
723.672	0.195547
726.565	0.153405
729.458	0.071229
732.35	0.204177
735.243	0.211308
738.136	0.284529
741.029	0.127618
743.921	0.190978
746.814	0.113629
749.707	0.328255
752.599	0.05185
755.492	0.147587
758.385	0.090186
761.277	0.183566
764.17	0.169251
767.063	0.126466
769.956	0.317923
772.848	0.253781
775.741	0.552712
778.634	0.195094
781.526	0.168117
784.419	0.262658
787.312	0.363717
790.204	0.046216
793.097	0.073047
795.99	0.120261
798.883	0.132003
801.775	0.087841
804.668	0.228674
807.561	0.289591
810.453	0.064331
813.346	0.253393
816.239	0.267133
819.131	0.358551
822.024	0.269915
824.917	0.194037
827.809	0.323147
830.702	0.21265
833.595	0.367549
836.487	0.441809
839.38	0.472657
842.273	0.208863
845.166	0.260528
848.058	0.673201
850.951	0.142139
853.844	0.02666
856.736	0.31505
859.629	0.320934
862.522	0.236841
865.415	0.266454
868.307	0.342139
871.2	0.399884
874.093	0.337246
876.985	0.038703
879.878	0.060591
882.771	0.443104
885.663	0.059883
888.556	0.303639
891.449	0.481121
894.342	0.275967
897.234	0.173806
900.127	0.175877
903.02	0.386812
905.912	0.252831
908.805	0.132185
911.698	0.177477
914.591	0.415146
917.483	0.414515
920.376	0.065699
923.269	0.32751
926.161	0.382273
929.054	0.287731
931.947	0.147327
934.839	0.21809
937.732	0.035843
940.625	0.17183
943.518	0.490553
946.41	0.309961
949.303	0.363507
952.196	0.170343
955.088	0.261029
957.981	0.207403
960.874	0.180764
963.766	0.386918
966.659	0.275265
969.552	0.118422
972.444	0.165101
975.337	0.290157
978.23	0.332469
981.123	0.280985
984.015	0.218662
986.908	0.266419
989.801	0.250939
992.693	0.059388
995.586	0.036525
998.479	0.197459
1001.37	0.03018
1004.26	0.015869
1007.16	0.028836
1010.05	0.184655
1012.94	0.029462
1015.84	0.141605
1018.73	0.226979
1021.62	0.328388
1024.51	0.353279
1027.41	0.078635
1030.3	0.207495
1033.19	0.349046
1036.08	0.421851
1038.98	0.122295
1041.87	0.129089
1044.76	0.311865
1047.65	0.196872
1050.55	0.234955
1053.44	0.205869
1056.33	0.298202
1059.22	0.265853
1062.12	0.359793
1065.01	0.283597
1067.9	0.211809
1070.8	0.337078
1073.69	0.322634
1076.58	0.260201
1079.47	0.302941
1082.37	0.30029
1085.26	0.352495
1088.15	0.408386
1091.05	0.171203
1093.94	0.087335
1096.83	0.103069
1099.72	0.139212
1102.62	0.202073
1105.51	0.073745
1108.4	0.094364
1111.29	0.17742
1114.19	0.333603
1117.08	0.377898
1119.97	0.074685
1122.87	0.077025
1125.76	0.340784
1128.65	0.011072
1131.54	0.37085
1134.44	0.43839
1137.33	0.118726
1140.22	0.146349
1143.11	0.157339
1146.01	0.284346
1148.9	0.18089
1151.79	0.347674
1154.68	0.14351
1157.58	0.197688
1160.47	0.209322
1163.36	0.027651
1166.26	0.074268
1169.15	0.339672
1172.04	0.29022
1174.93	0.115921
1177.83	0.479364
1180.72	0.331803
1183.61	0.138016
1186.5	0.256861
1189.4	0.060062
1192.29	0.095658
1195.18	0.179783
1198.08	0.408549
1200.97	0.099852
1203.86	0.032232
1206.75	0.092228
1209.65	0.540032
1212.54	0.416892
1215.43	0.205683
1218.32	0.314204
1221.22	0.09361
1224.11	0.419849
1227	0.304991
1229.89	0.244153
1232.79	0.200907
1235.68	0.392107
1238.57	0.231196
1241.47	0.343403
1244.36	0.373873
1247.25	0.246518
1250.14	0.246469
1253.04	0.122262
1255.93	0.209002
1258.82	0.321592
1261.71	0.006352
1264.61	0.1509
1267.5	0.319116
1270.39	0.128323
1273.29	0.134476
1276.18	0.417767
1279.07	0.388682
1281.96	0.19946
1284.86	0.141575
1287.75	0.103314
