Measurement: Raman, 532 nm, unoriented, Raman Data Processed
Mineral: Stutzite
Rruff sample: R070701
Ideal chemistry: Ag_4.64-4.76_Te_3_
Locality: Klondike mine, Saguache County, Colorado, USA
Source: Michael Scott
Description: Black, highly reflective, chonchoidal fracture, blebs scattered throughout the matrix, associated with altaite, R060692
Measured chemistry: Ag_4.94_Te_3.00_
Raman shift (cm-1)	intensity
159.456	0
162.349	0.116873
165.242	0.089922
168.134	0.260607
171.027	0.263099
173.92	0.40779
176.812	0.382595
179.705	0.266707
182.598	0.263491
185.49	0.358531
188.383	0.021436
191.276	0.384546
194.169	0.319159
197.061	0.100783
199.954	0.16079
202.847	0.032898
205.739	0.135754
208.632	0.095608
211.525	0.143697
214.417	0.112455
217.31	0.270521
220.203	0.218424
223.096	0.606526
225.988	0.573788
228.881	0.690292
231.774	0.476335
234.666	0.556491
237.559	0.581118
240.452	0.699472
243.345	0.863576
246.237	0.437231
249.13	0.681939
252.023	0.313964
254.915	0.698375
257.808	0.552667
260.701	0.38888
263.593	0.406937
266.486	0.670462
269.379	0.354616
272.272	0.467267
275.164	0.461363
278.057	0.523052
280.95	0.573853
283.842	0.76293
286.735	0.595392
289.628	0.566066
292.52	0.624577
295.413	0.533326
298.306	0.757818
301.199	0.81652
304.091	0.602193
306.984	0.637042
309.877	0.32716
312.769	0.376002
315.662	0.263704
318.555	0.43475
321.447	0.331551
324.34	0.387379
327.233	0.143707
330.125	0.287578
333.018	0.109848
335.911	0.153261
338.804	0.104486
341.696	0.165384
344.589	0.191407
347.482	0.158707
350.374	0.166898
353.267	0.108556
356.16	0.177257
359.053	0.081626
361.945	0.108182
364.838	0.266686
367.731	0.236062
370.623	0.396901
373.516	0.084801
376.409	0.14434
379.301	0.151002
382.194	0.315715
385.087	0.242227
387.979	0.252764
390.872	0.157103
393.765	0.262717
396.658	0.190163
399.55	0.04687
402.443	0.112867
405.336	0.010165
408.228	0.122648
411.121	0.20674
414.014	0.368507
416.906	0.212901
419.799	0.170029
422.692	0.006486
425.585	0.121377
428.477	0.14074
431.37	0.098852
434.263	0.280131
437.155	0.248621
440.048	0.063324
442.941	0.076828
445.834	0.16687
448.726	0.439726
451.619	0.250925
454.512	0.154269
457.404	0.192091
460.297	0.311156
463.19	0.269899
466.082	0.229468
468.975	0.151681
471.868	0.077289
474.76	0.0677
477.653	0.134902
480.546	0.146393
483.439	0.193184
486.331	0.155065
489.224	0.165483
492.117	0.275714
495.009	0.444839
497.902	0.21872
500.795	0.289454
503.688	0.206683
506.58	0.276133
509.473	0.370429
512.365	0.248056
515.258	0.256003
518.151	0.154466
521.044	0.214754
523.936	0.166243
526.829	0.19318
529.722	0.012777
532.614	0.145833
535.507	0.180061
538.4	0.202619
541.293	0.213015
544.185	0.42124
547.078	0.026535
549.971	0.120555
552.863	0.155266
555.756	0.303134
558.649	0.306273
561.541	0.056487
564.434	0.242414
567.327	0.196241
570.22	0.322563
573.112	0.193463
576.005	0.085302
578.898	0.048168
581.79	0.18089
584.683	0.044887
587.576	0.231372
590.468	0.259228
593.361	0.388635
596.254	0.24182
599.146	0.266536
602.039	0.323945
604.932	0.117743
607.825	0.2761
610.717	0.014455
613.61	0.308135
616.503	0.273285
619.395	0.196903
622.288	0.348413
625.181	0.007367
628.073	0.224956
630.966	0.258127
633.859	0.408523
636.752	0.108833
639.644	0.206268
642.537	0.20608
645.43	0.317012
648.322	0.216054
651.215	0.071278
654.108	0.107711
657	0.129808
659.893	0.237293
662.786	0.201226
665.679	0.354554
668.571	0.088092
671.464	0.190385
674.357	0.101767
677.25	0.209703
680.142	0.199039
683.035	0.1511
685.928	0.17709
688.82	0.218343
691.713	0.169032
694.606	0.069731
697.498	0.111236
700.391	0.077632
703.284	0.023648
706.177	0.04996
709.069	0.116175
711.962	0.165709
714.855	0.328971
717.747	0.229195
720.64	0.155623
723.533	0.207628
726.425	0.153217
729.318	0.143651
732.211	0.1242
735.103	0.230966
737.996	0.27925
740.889	0.161953
743.782	0.157029
746.674	0.162302
749.567	0.231215
752.46	0.283997
755.352	0.46488
758.245	0.262207
761.138	0.394699
764.03	0.161031
766.923	0.025808
769.816	0.173306
772.708	0.229569
775.601	0.148841
778.494	0.413158
781.387	0.142193
784.279	0.267865
787.172	0.235743
790.065	0.210478
792.957	0.055268
795.85	0.054145
798.743	0.177815
801.635	0.15301
804.528	0.153087
807.421	0.138832
810.314	0.128313
813.206	0.414287
816.099	0.125239
818.992	0.257585
821.884	0.319904
824.777	0.30027
827.67	0.171321
830.562	0.378909
833.455	0.35713
836.348	0.090338
839.241	0.238812
842.133	0.268226
845.026	0.219353
847.919	0.279815
850.811	0.140983
853.704	0.208343
856.597	0.353556
859.49	0.364534
862.382	0.317973
865.275	0.282533
868.168	0.45186
871.06	0.000915
873.953	0.234277
876.846	0.384061
879.738	0.142381
882.631	0.025848
885.524	0.117569
888.417	0.297281
891.309	0.223015
894.202	0.126273
897.095	0.168939
899.987	0.117333
902.88	0.150745
905.773	0.062735
908.665	0.089426
911.558	0.129805
914.451	0.256429
917.343	0.091401
920.236	0.028601
923.129	0.058742
926.022	0.177218
928.914	0.110289
931.807	0.104393
934.7	0.40435
937.592	0.18741
940.485	0.301506
943.378	0.236529
946.27	0.183625
949.163	0.074426
952.056	0.218186
954.949	0.040399
957.841	0.11066
960.734	0.021569
963.627	0.076289
966.519	0.081953
969.412	0.178136
972.305	0.033957
975.197	0.086024
978.09	0.016023
980.983	0.005813
983.875	0.1903
986.768	0.038605
989.661	0.15278
992.554	0.246869
995.446	0.179914
998.339	0.142031
1001.23	0.05994
1004.12	0.013369
1007.02	0.105236
1009.91	0.098566
1012.8	0.208969
1015.7	0.0582
1018.59	0.111781
1021.48	0.184091
1024.37	0.393618
1027.27	0.217059
1030.16	0.081956
1033.05	0.196398
1035.94	0.246122
1038.84	0.324295
1041.73	0.301702
1044.62	0.21842
1047.52	0.053881
1050.41	0.146336
1053.3	0.119771
1056.19	0.139619
1059.09	0.171003
1061.98	0.188816
1064.87	0.229837
1067.76	0.099391
1070.66	0.199135
1073.55	0.029097
1076.44	0.066124
1079.34	0.332499
1082.23	0.141757
1085.12	0.062215
1088.01	0.462345
1090.9	0.305896
1093.8	0.129165
1096.69	0.010764
1099.58	0.202653
1102.48	0.164355
1105.37	0.111473
1108.26	0.158385
1111.15	0.315565
1114.05	0.095928
1116.94	0.098473
1119.83	0.187112
1122.72	0.040637
1125.62	0.290392
1128.51	0.120722
1131.4	0.070581
1134.3	0.034583
1137.19	0.262281
1140.08	0.223091
1142.97	0.540159
1145.87	0.342898
1148.76	0.11499
1151.65	0.12908
1154.55	0.244898
1157.44	0.384886
1160.33	0.216748
1163.22	0.191669
1166.12	0.191104
1169.01	0.209796
1171.9	0.156483
1174.79	0.132262
1177.69	0.078969
1180.58	0.208715
1183.47	0.110765
1186.37	0.071135
1189.26	0.14565
1192.15	0.193628
1195.04	0.102288
1197.93	0.226107
1200.83	0.047187
1203.72	0.054984
1206.61	0.086188
1209.51	0.00874
1212.4	0.312872
1215.29	0.327348
1218.18	0.19286
1221.08	0.047688
1223.97	0.147162
1226.86	0.170112
1229.76	0.132482
1232.65	0.183994
1235.54	0.195939
1238.43	0.237421
1241.33	0.106884
1244.22	0.28917
1247.11	0.258302
1250	0.459698
1252.9	0.170823
1255.79	0.131797
1258.68	0.279288
1261.58	0.281518
1264.47	0.278648
1267.36	0.069977
1270.25	0.170401
1273.15	0.175078
1276.04	0.381207
1278.93	0.250731
1281.82	0.293266
1284.72	0.056277
1287.61	0.096828
1290.5	0.161745
1293.39	0.026151
1296.29	0.227405
1299.18	0.284
1302.07	0.066868
1304.96	0
