Measurement: Raman, 532 nm, unoriented, Raman Data Processed
Mineral: Surite
Rruff sample: R110145
Ideal chemistry: (Pb^2+^,Ca)_3_Al_2_(Si,Al)_4_O_10_(CO_3_)_2_(OH)_3_0.3H_2_O
Locality: Mammoth mine, Tiger, Arizona, USA
Source: Joe Ruiz
Description: Spherical aggregates of white to transparent waxy platy crystals associated with yellow mimetite
Raman shift (cm-1)	intensity
218.735	0
221.628	73.2637
224.521	96.0059
227.413	163.227
230.306	189.195
233.199	243.287
236.091	292.348
238.984	213.781
241.877	122.225
244.769	211.781
247.662	235.988
250.555	242.223
253.448	257.047
256.34	309.543
259.233	424.469
262.126	419.732
265.018	310.199
267.911	348.508
270.804	359.5
273.697	387.438
276.589	404.371
279.482	403.057
282.375	299.432
285.267	110.272
288.16	78.3125
291.053	82.1914
293.945	115.203
296.838	160.369
299.731	239.363
302.623	182.102
305.516	212.992
308.409	190.543
311.302	200.336
314.194	180.438
317.087	172.934
319.98	92.4492
322.872	123.117
325.765	45.9336
328.658	5.74219
331.55	2.04297
334.443	59.6992
337.336	192.289
340.229	144.242
343.121	44.0742
346.014	25.3047
348.907	42.5977
351.799	47.3516
354.692	101.859
357.585	126.352
360.478	103.102
363.37	88.9492
366.263	63.4766
369.156	99.4023
372.048	91.6328
374.941	3.55469
377.834	42.25
380.726	10.8867
383.619	13.6016
386.512	51.2148
389.404	96.9102
392.297	24.1133
395.19	16.7539
398.083	22.2773
400.975	59.6797
403.868	79.5
406.761	134.379
409.653	180.512
412.546	228.094
415.439	239.688
418.332	133.133
421.224	28.1602
424.117	62.1523
427.01	86.9688
429.902	218.941
432.795	135.805
435.688	65.2305
438.58	94.0117
441.473	74.6172
444.366	83.7969
447.259	141.613
450.151	172.121
453.044	112.949
455.937	53.0859
458.829	84.2539
461.722	91.2422
464.615	70.332
467.507	64.1758
470.4	12.5703
473.293	59.1562
476.185	63.0352
479.078	81.5
481.971	68.4336
484.864	63.582
487.756	127.379
490.649	122.371
493.542	122.336
496.434	185.727
499.327	291.738
502.22	136.32
505.113	91.1875
508.005	53.5508
510.898	97.5352
513.791	83.2695
516.683	68.2461
519.576	89.1992
522.469	89.5742
525.361	184.367
528.254	249.016
531.147	164.195
534.04	135.195
536.932	51.7656
539.825	91.9883
542.718	162.262
545.61	143.012
548.503	180.394
551.396	253.113
554.288	206.824
557.181	138.543
560.074	145.609
562.967	90.0859
565.859	91.3906
568.752	111.519
571.645	81.1328
574.537	48.3789
577.43	126.5
580.323	213.453
583.216	236.781
586.108	185.992
589.001	226.109
591.894	248.109
594.786	226.965
597.679	144.324
600.572	137.488
603.464	62.8555
606.357	37.1367
609.25	140.941
612.142	140.438
615.035	111
617.928	63.8203
620.821	80.668
623.713	23.7344
626.606	16.5547
629.499	20.2852
632.391	3.36328
635.284	31.332
638.177	50.7891
641.069	4.36328
643.962	25.5742
646.855	29.4141
649.747	3.69531
652.64	63.3633
655.533	168.328
658.426	147.953
661.318	135.812
664.211	137.113
667.104	31.957
669.996	168.231
672.889	135.371
675.782	184.176
678.674	221.383
681.567	314.281
684.46	324.465
687.353	276.562
690.245	385.574
693.138	411.086
696.031	333.867
698.923	391.836
701.816	359.957
704.709	273.633
707.601	301.356
710.494	313.176
713.387	233.32
716.28	128.715
719.172	19.6953
722.065	55.2812
724.958	76.7383
727.85	170.894
730.743	165.695
733.636	148.059
736.529	45.6328
739.421	51.6602
742.314	30.25
745.207	29.5039
748.099	21.6328
750.992	28.3398
753.885	157.731
756.777	201.051
759.67	153.379
762.563	112.356
765.456	113.891
768.348	144.918
771.241	90.0664
774.134	131.559
777.026	114.961
779.919	161.992
782.812	149.836
785.704	110.523
788.597	2.46875
791.49	145.637
794.383	124.981
797.275	74.6797
800.168	12.8281
803.061	1.47656
805.953	7.92969
808.846	114.758
811.739	40.5352
814.631	80.7969
817.524	122.734
820.417	200.941
823.309	147.004
826.202	94.2695
829.095	51.8984
831.988	118.195
834.88	38.8672
837.773	10.9844
840.666	24.9922
843.558	41.125
846.451	42.2266
849.344	4.30469
852.236	11.5586
855.129	75.082
858.022	105.68
860.915	181.152
863.807	127.531
866.7	147.328
869.593	117.129
872.485	163.629
875.378	171.938
878.271	53.9883
881.163	35.3789
884.056	51.9219
886.949	121.75
889.842	242.504
892.734	106.707
895.627	158.828
898.52	69.0938
901.412	73.6797
904.305	91.4766
907.198	167.301
910.091	227.215
912.983	199.469
915.876	197.273
918.769	204.664
921.661	88.0508
924.554	119.641
927.447	139.723
930.339	132.559
933.232	38.9727
936.125	33.6602
939.018	16.6406
941.91	70.6211
944.803	109.16
947.696	133.734
950.588	48.6523
953.481	121.492
956.374	41.9844
959.266	7.60156
962.159	7.96484
965.052	45.0352
967.944	79.7695
970.837	91.8945
973.73	21.2734
976.623	29.5586
979.515	94.9453
982.408	70.3086
985.301	49.1055
988.193	52.6875
991.086	131.996
993.979	111.359
996.871	69.7695
999.764	26.4961
1002.66	25.7383
1005.55	47.2031
1008.44	87.4141
1011.34	97.6562
1014.23	58.8281
1017.12	21.1406
1020.01	64.9492
1022.91	120.098
1025.8	44.9844
1028.69	72.2734
1031.58	59.0859
1034.48	140.777
1037.37	139.637
1040.26	71.8398
1043.15	18.2578
1046.05	13.5938
1048.94	81.7227
1051.83	86.5586
1054.73	176.027
1057.62	201.098
1060.51	157.672
1063.4	268.957
1066.3	272.906
1069.19	365.606
1072.08	455.508
1074.97	584.254
1077.87	734.027
1080.76	858.715
1083.65	786.047
1086.55	450.359
1089.44	198.148
1092.33	75.2852
1095.22	52.8594
1098.12	123.578
1101.01	175.348
1103.9	36.4414
1106.79	97.6172
1109.69	41.957
1112.58	194.285
1115.47	167.691
1118.37	106.582
1121.26	102.019
1124.15	86.8555
1127.04	89.5156
1129.94	20.4609
1132.83	10.3281
1135.72	70.7344
1138.61	112.781
1141.51	56.0859
1144.4	69.7578
1147.29	175.984
1150.18	99.0234
1153.08	133.992
1155.97	98.918
1158.86	23.0273
1161.76	24.5781
1164.65	92.3828
1167.54	61.0664
1170.43	38.0117
1173.33	100.981
1176.22	134.457
1179.11	107.875
1182	197.68
1184.9	212.156
1187.79	262.832
1190.68	124.695
1193.58	112.324
1196.47	113.578
1199.36	137.676
1202.25	164.051
1205.15	152.269
1208.04	267.262
1210.93	310.641
1213.82	305.426
1216.72	203.606
1219.61	135.652
1222.5	171.41
1225.39	187.164
1228.29	158.398
1231.18	131.234
1234.07	11.7031
1236.97	50.3398
1239.86	0.394531
1242.75	108.309
1245.64	104.277
1248.54	63.6562
1251.43	35.4844
1254.32	117.629
1257.21	132.625
1260.11	149.523
1263	177.098
1265.89	167.074
1268.79	139.449
1271.68	42.3984
1274.57	109.402
1277.46	152.305
1280.36	9.44531
1283.25	22.9648
1286.14	27.582
1289.03	48.6484
1291.93	69.2031
1294.82	103.469
1297.71	107.676
1300.61	97.2969
