Measurement: Raman, 532 nm, unoriented, Raman Data Processed
Mineral: Swinefordite
Rruff sample: R070707
Ideal chemistry: Ca_0.2_(Li,Al,Mg,Fe^3+^,Fe^2+^)_3_(Si,Al)_4_O_10_(OH,F)_2_nH_2_O
Locality: Foote Lithium Co. mine, Kings Mountain District, Cleveland County, North Carolina, USA
Source: Michael Scott
Description: Gunmetal dark grey with brownish tint; massive curled and folded sheets associated with quartz
Raman shift (cm-1)	intensity
143.185	0
146.56	38.3223
149.934	78.999
153.309	213.517
156.684	153.074
160.059	8.30078
163.434	96.6846
166.809	65.4111
170.183	125.645
173.558	169.476
176.933	127.46
180.308	180.443
183.683	230.481
187.057	191.965
190.432	76.8135
193.807	121.439
197.182	93.9697
200.557	69.0644
203.931	158.962
207.306	80.2939
210.681	32.541
214.056	21.084
217.431	21.9785
220.806	13.6182
224.18	59.9199
227.555	121.208
230.93	191.317
234.305	96.8936
237.68	131.754
241.054	14.252
244.429	7.16894
247.804	49.8301
251.179	175.257
254.554	75.1728
257.928	50.2227
261.303	88.8564
264.678	77.8682
268.053	48.1406
271.428	138.321
274.803	40.7568
278.177	62.8203
281.552	76.3154
284.927	78.6592
288.302	60.9746
291.677	188.171
295.051	158.136
298.426	40.6885
301.801	86.1914
305.176	76.2549
308.551	85.0703
311.926	70.3164
315.3	83.6494
318.675	156.64
322.05	131.566
325.425	108.344
328.8	141.951
332.175	131.409
335.549	207.609
338.924	187.627
342.299	167.256
345.674	188.822
349.049	188.332
352.423	110.572
355.798	72.9883
359.173	125.834
362.548	175.916
365.923	157.871
369.298	167.283
372.672	24.625
376.047	100.103
379.422	166.615
382.797	105.113
386.171	47.2012
389.546	50.0293
392.921	8.24414
396.296	113.328
399.671	119.012
403.046	70.5273
406.42	68.8613
409.795	51.7559
413.17	158.863
416.545	74.2051
419.92	224.82
423.295	192.977
426.669	84.5586
430.044	165.906
433.419	52.6465
436.794	13.6348
440.169	19.0176
443.543	91.584
446.918	175.293
450.293	110.287
453.668	156.809
457.043	1.87891
460.417	127.603
463.792	77.2012
467.167	68.7363
470.542	111.35
473.917	3.38672
477.291	56.6562
480.666	103.002
484.041	354.721
487.416	188.236
490.791	133.924
494.166	112.789
497.54	55.8008
500.915	21.8535
504.29	39.4453
507.665	59.9434
511.04	128.34
514.414	203.07
517.789	146.371
521.164	29.3125
524.539	140.098
527.914	89.8731
531.289	159.594
534.663	172.125
538.038	51.123
541.413	34.6191
544.788	20.6055
548.163	44.0762
551.538	150.998
554.912	75.8769
558.287	80.5762
561.662	107.918
565.037	82.1406
568.412	161.44
571.786	9.75781
575.161	46.0586
578.536	135.471
581.911	100.113
585.286	164.664
588.66	192.715
592.035	248.111
595.41	99.168
598.785	161.438
602.16	227.256
605.534	241.881
608.909	309.072
612.284	264.338
615.659	315.719
619.034	330.228
622.409	200.463
625.783	201.648
629.158	161.777
632.533	216.994
635.908	141.098
639.283	102.158
642.658	78.7031
646.032	97.9453
649.407	2.66211
652.782	24.7891
656.157	50.7891
659.532	19.248
662.906	113.127
666.281	125.291
669.656	79.2481
673.031	142.828
676.406	124.731
679.78	279.264
683.155	107.447
686.53	186.295
689.905	185.158
693.28	124.022
696.654	139.158
700.029	42.4395
703.404	59.4121
706.779	13.0332
710.154	47.7344
713.529	52.4219
716.903	69.8945
720.278	144.889
723.653	111.625
727.028	28.7266
730.403	80.5254
733.778	137.19
737.152	1.63281
740.527	60.8711
743.902	85.875
747.277	119.852
750.652	60.0703
754.026	116
757.401	110.619
760.776	32.7031
764.151	81.7012
767.526	59.8867
770.9	48.0137
774.275	59.0215
777.65	145.459
781.025	111.211
784.4	164.291
787.775	136.236
791.149	113.814
794.524	101.889
797.899	62.0254
801.274	3.07422
804.649	5.35352
808.024	114.377
811.398	166.113
814.773	116.699
818.148	113.42
821.523	50.5039
824.898	172.221
828.272	173.289
831.647	198.451
835.022	155.322
838.397	192.234
841.772	141.852
845.146	119.67
848.521	119.394
851.896	193.85
855.271	122.613
858.646	97.8731
862.02	46.1641
865.395	1.11914
868.77	7.69336
872.145	18.0801
875.52	0.486328
878.895	39.3672
882.269	29.5469
885.644	106.184
889.019	173.328
892.394	34.2012
895.769	228.986
899.144	106.629
902.518	263.383
905.893	316.553
909.268	227.221
912.643	150.369
916.018	122.031
919.392	224.117
922.767	231.127
926.142	228.44
929.517	235.344
932.892	226.945
936.266	111.184
939.641	197.49
943.016	150.613
946.391	205.428
949.766	167.568
953.141	198.039
956.515	148.707
959.89	117.836
963.265	132.1
966.64	203.574
970.015	119.033
973.389	62.6914
976.764	195.481
980.139	171.65
983.514	208.129
986.889	244.269
990.264	231.228
993.638	170.938
997.013	153.824
1000.39	182.051
1003.76	197.494
1007.14	224.621
1010.51	105.102
1013.89	22.5879
1017.26	31.2012
1020.64	72.0742
1024.01	58.2773
1027.39	55.4746
1030.76	11.2969
1034.14	115.951
1037.51	137.67
1040.89	45.5332
1044.26	114.484
1047.63	117.207
1051.01	64.7207
1054.38	99.7402
1057.76	42.9551
1061.13	101.662
1064.51	138.641
1067.88	117.029
1071.26	158.16
1074.63	43.3047
1078.01	161.613
1081.38	218.935
1084.76	113.193
1088.13	89.3047
1091.51	65.5547
1094.88	73.8789
1098.26	122.242
1101.63	74.3535
1105.01	144.934
1108.38	27.6133
1111.76	129.309
1115.13	30.7891
1118.51	150.172
1121.88	83.5547
1125.26	183.793
1128.63	58.9414
1132.01	148.191
1135.38	163.43
1138.76	2.81836
1142.13	88.6445
1145.51	87.9707
1148.88	204.316
1152.26	25.4805
1155.63	129.447
1159	66.3535
1162.38	32.1914
1165.75	162.594
1169.13	117.928
1172.5	87.5117
1175.88	144.188
1179.25	63.6914
1182.63	57.584
1186	132.91
1189.38	119.562
1192.75	325.941
1196.13	252.023
1199.5	185.85
1202.88	153.715
1206.25	218.084
1209.63	197.65
1213	211.285
1216.38	124.301
1219.75	147.195
1223.13	33.7168
1226.5	177.982
1229.88	126.211
1233.25	118.164
1236.62	89.209
1240	99.0977
1243.38	199.307
1246.75	112.465
1250.12	118.248
1253.5	216.15
1256.87	59.8027
1260.25	25.752
1263.62	161.291
1267	102.885
1270.37	176.01
1273.75	78.5137
1277.12	162.188
1280.5	191.047
1283.87	228.703
1287.25	31.2188
1290.62	49.4902
1294	13.4961
1297.37	11.1191
1300.75	10.7539
