Measurement: Raman, 780 nm, unoriented, Raman Data Processed
Mineral: Swinefordite
Rruff sample: R070707
Ideal chemistry: Ca_0.2_(Li,Al,Mg,Fe^3+^,Fe^2+^)_3_(Si,Al)_4_O_10_(OH,F)_2_nH_2_O
Locality: Foote Lithium Co. mine, Kings Mountain District, Cleveland County, North Carolina, USA
Source: Michael Scott
Description: Gunmetal dark grey with brownish tint; massive curled and folded sheets associated with quartz
Raman shift (cm-1)	intensity
106.951	0
110.326	16.5947
113.701	39.581
117.075	32.0977
120.45	54.8945
123.825	53.1934
127.2	95.1816
130.575	68.9092
133.95	82.6367
137.324	49.8174
140.699	77.9658
144.074	123.725
147.449	230.965
150.824	160.272
154.198	223.398
157.573	231.712
160.948	278.925
164.323	222.844
167.698	194.132
171.072	303.508
174.447	282.411
177.822	204.995
181.197	260.573
184.572	171.62
187.947	222.222
191.321	271.914
194.696	162.516
198.071	212.137
201.446	113.099
204.821	140.648
208.196	244.34
211.57	65.0225
214.945	196.357
218.32	150.422
221.695	54.1826
225.07	133.201
228.444	102.975
231.819	20.2441
235.194	57.4619
238.569	21.1777
241.944	33.4424
245.319	26.8818
248.693	0.327148
252.068	58.9961
255.443	12.6826
258.818	32.252
262.193	30.416
265.567	35.834
268.942	42.2998
272.317	37.9277
275.692	106.224
279.067	41.123
282.442	67.292
285.816	76.3486
289.191	84.8682
292.566	59.1133
295.941	169.914
299.316	133.491
302.69	38.7852
306.065	84.3994
309.44	37.3613
312.815	84.7539
316.19	85.7168
319.565	50.8203
322.939	79.0879
326.314	67.4375
329.689	83.6523
333.064	110.549
336.439	34.3477
339.813	46.7969
343.188	0.241211
346.563	46.3711
349.938	53.1934
353.313	72.2178
356.688	110.4
360.062	77.8911
363.437	28.0918
366.812	85.0791
370.187	82.356
373.562	58.9209
376.936	73.5425
380.311	56.7349
383.686	72.1231
387.061	69.3442
390.436	37.2505
393.81	65.228
397.185	53.9902
400.56	90.1431
403.935	49.6499
407.31	93.4253
410.685	40.0381
414.059	8.94531
417.434	34.6475
420.809	65.4966
424.184	50.8511
427.559	39.1719
430.933	68.1904
434.308	15.0523
437.683	32.6118
441.058	79.769
444.433	57.6309
447.808	78.52
451.182	24.8071
454.557	23.2349
457.932	34.1841
461.307	46.6919
464.682	2.79199
468.057	82.4004
471.431	81.9419
474.806	33.5269
478.181	64.0713
481.556	14.0874
484.931	45.7339
488.305	42.6074
491.68	38.8701
495.055	62.0635
498.43	42.1626
501.805	7.69727
505.18	85.7544
508.554	95.9785
511.929	123.496
515.304	72.3828
518.679	81.9624
522.054	56.2705
525.428	109.424
528.803	91.2871
532.178	66.728
535.553	16.1001
538.928	79.5269
542.303	20.6929
545.677	89.3374
549.052	18.0337
552.427	12.7588
555.802	82.4326
559.177	73.5234
562.551	46.2022
565.926	32.0332
569.301	74.0859
572.676	49.687
576.051	53.207
579.426	63.5005
582.8	40.5664
586.175	64.606
589.55	10.3813
592.925	43.6924
596.3	46.4248
599.674	49.8774
603.049	23.9443
606.424	42.6528
609.799	22.3994
613.174	72.6743
616.548	24.5508
619.923	42.3565
623.298	63.5894
626.673	86.6924
630.048	63.0942
633.423	111.258
636.797	106.305
640.172	38.0102
643.547	114.291
646.922	128.99
650.297	118.409
653.672	83.8535
657.046	97.1719
660.421	105.589
663.796	115.128
667.171	102.73
670.546	124.698
673.92	105.111
677.295	83.6206
680.67	70.5161
684.045	136.179
687.42	46.4477
690.794	35.6411
694.169	12.5356
697.544	59.3648
700.919	63.4116
704.294	45.082
707.669	27.4414
711.043	10.4224
714.418	61.7432
717.793	108.531
721.168	51.8848
724.543	43.0996
727.918	44.2612
731.292	16.3726
734.667	22.3174
738.042	41.0586
741.417	5.72461
744.792	42.5674
748.166	43.2685
751.541	89.0523
754.916	83.8955
758.291	28.0742
761.666	61.001
765.04	42.4727
768.415	30.8838
771.79	58.8862
775.165	35.7769
778.54	12.8643
781.915	62.999
785.289	21.7681
788.664	51.4263
792.039	59.9199
795.414	29.751
798.789	39.7627
802.163	54.0352
805.538	0.342285
808.913	69.3086
812.288	37.145
815.663	33.0161
819.038	75.1685
822.412	2.28906
825.787	68.5283
829.162	17.9761
832.537	74.3032
835.912	46.6655
839.287	73.5606
842.661	73.5972
846.036	37.5068
849.411	108.65
852.786	92.1216
856.161	67.0552
859.535	55.9292
862.91	72.8691
866.285	54.7544
869.66	8.25293
873.035	15.6294
876.409	43.3735
879.784	85.0879
883.159	39.8227
886.534	41.1904
889.909	61.209
893.284	54.9219
896.658	54.4038
900.033	34.8232
903.408	90.5576
906.783	39.3906
910.158	77.8999
913.533	95.9473
916.907	64.6426
920.282	99.0435
923.657	69.6616
927.032	78.645
930.407	68.0244
933.781	52.8555
937.156	32.1728
940.531	66.2017
943.906	118.971
947.281	85.2124
950.655	10.8413
954.03	37.0498
957.405	91.5239
960.78	62.541
964.155	49.9551
967.53	67.6968
970.904	99.9477
974.279	24.0967
977.654	91.4487
981.029	18.6855
984.404	31.8516
987.779	1.01953
991.153	18.9316
994.528	22.5684
997.903	23.2334
1001.28	29.875
1004.65	162.052
1008.03	78.7578
1011.4	29.0195
1014.78	54.1475
1018.15	54.8496
1021.53	47.4341
1024.9	89.5513
1028.28	103.436
1031.65	3.96875
1035.03	71.1021
1038.4	43.0869
1041.78	80.1309
1045.15	65.4878
1048.53	78.1655
1051.9	103.9
1055.28	84.1284
1058.65	50.1377
1062.03	45.8555
1065.4	0.660645
1068.77	45.8384
1072.15	54.4023
1075.52	42.7588
1078.9	0.294434
1082.27	55.9341
1085.65	35.4966
1089.02	32.3818
1092.4	62.5757
1095.77	34.876
1099.15	68.3018
1102.52	38.7505
1105.9	27.0254
1109.27	43.9341
1112.65	50.7305
1116.02	9.37256
1119.4	44.3203
1122.77	19.8227
1126.15	15.1929
1129.52	23.1025
1132.9	41.8301
1136.27	0.3125
1139.64	22.127
1143.02	16.9541
1146.39	4.82959
1149.77	42.4727
1153.14	15.6387
1156.52	41.2876
1159.89	12.6924
1163.27	42.0044
1166.64	74.5796
1170.02	40.7734
1173.39	32.6455
1176.77	77.9146
1180.14	30.7466
1183.52	100.496
1186.89	58.2041
1190.27	30.396
1193.64	61.5029
1197.02	45.1397
1200.39	74.4385
1203.77	46.4009
1207.14	80.1152
1210.52	43.419
1213.89	54.7759
1217.27	34.2827
1220.64	53.169
1224.02	16.2602
1227.39	25.9487
1230.77	39.6006
1234.14	5.22998
1237.52	66.8799
1240.89	46.1948
1244.27	57.6533
1247.64	10.2393
1251.01	3.03272
1254.39	4.01221
1257.76	16.3477
1261.14	1.33691
1264.51	36.8096
1267.89	28.0762
1271.26	67.8965
1274.64	18.4307
1278.01	68.4492
1281.39	73.062
1284.76	47.2539
1288.14	37.1343
