Measurement: Raman, 780 nm, unoriented, Raman Data RAW
Mineral: Sylvite
Rruff sample: R050166
Ideal chemistry: KCl
Locality: Salton Sea, Imperial County, California, USA
Source: Marcus Origlieri
Description: Pale blue octahedral crystals
Raman shift (cm-1)	intensity
175.492	20.624
178.385	18.5897
181.277	17.8304
184.17	18.4873
187.063	19.0164
189.955	16.9833
192.848	16.7548
195.741	17.5549
198.633	17.3056
201.526	15.4823
204.419	17.1332
207.311	16.4571
210.204	16.047
213.097	16.5953
215.99	15.884
218.882	13.4791
221.775	14.9761
224.668	13.6966
227.56	13.5422
230.453	14.8991
233.346	12.9378
236.238	14.5015
239.131	11.1238
242.024	13.8037
244.917	13.0682
247.809	12.1391
250.702	13.1183
253.595	12.6129
256.487	10.7419
259.38	12.0766
262.273	10.3172
265.166	10.1977
268.058	10.4579
270.951	10.6919
273.844	11.1614
276.736	9.69477
279.629	11.2312
282.522	10.3098
285.414	10.0614
288.307	11.6964
291.2	10.2745
294.092	10.0191
296.985	8.49885
299.878	9.42803
302.771	7.96324
305.663	9.5774
308.556	7.57077
311.449	7.33079
314.341	8.20383
317.234	8.77859
320.127	7.02672
323.019	8.47839
325.912	7.56322
328.805	7.00893
331.698	7.9525
334.59	7.56802
337.483	7.62143
340.376	6.32052
343.268	6.32385
346.161	7.60816
349.054	6.79299
351.947	7.08267
354.839	6.95085
357.732	6.07551
360.625	7.06022
363.517	6.23995
366.41	6.42959
369.303	5.41187
372.195	6.88764
375.088	6.54739
377.981	6.47831
380.873	5.78942
383.766	5.43832
386.659	6.7668
389.552	5.65221
392.444	5.87202
395.337	5.00454
398.23	4.61915
401.122	6.60438
404.015	5.85982
406.908	5.41789
409.8	5.64556
412.693	4.26135
415.586	4.98517
418.479	5.39612
421.371	4.9043
424.264	4.35606
427.157	6.4659
430.049	6.42368
432.942	4.99989
435.835	3.88449
438.728	3.82881
441.62	5.60708
444.513	5.29853
447.406	4.31206
450.298	3.97478
453.191	4.63384
456.084	3.9963
458.976	5.54112
461.869	5.06855
464.762	4.16976
467.654	5.57409
470.547	5.11868
473.44	5.67614
476.333	5.7362
479.225	4.24174
482.118	5.73445
485.011	5.09166
487.903	4.44826
490.796	4.8086
493.689	5.12456
496.582	5.36858
499.474	3.56731
502.367	4.37317
505.26	4.44585
508.152	5.57414
511.045	4.27793
513.938	4.83417
516.83	4.89198
519.723	3.5022
522.616	3.74738
525.509	3.77733
528.401	3.86423
531.294	4.96424
534.187	4.64515
537.079	4.36918
539.972	5.34491
542.865	4.79
545.757	4.87
548.65	4.57632
551.543	5.01366
554.436	3.96032
557.328	4.74501
560.221	4.16903
563.114	4.67162
566.006	3.84997
568.899	4.25311
571.792	3.34128
574.684	4.73313
577.577	3.947
580.47	3.79498
583.362	3.28829
586.255	3.33562
589.148	4.10973
592.041	4.13436
594.933	3.06752
597.826	3.02503
600.719	3.37195
603.611	4.49552
606.504	3.56269
609.397	2.75761
612.29	3.51853
615.182	4.13338
618.075	3.35903
620.968	3.90542
623.86	3.48641
626.753	4.15914
629.646	3.26113
632.538	4.34183
635.431	3.4785
638.324	3.43383
641.217	5.05143
644.109	3.98252
647.002	4.38807
649.895	3.16483
652.787	4.70353
655.68	3.93435
658.573	4.10534
661.466	3.46279
664.358	3.15231
667.251	3.68249
670.144	4.28006
673.036	3.80451
675.929	3.11104
678.822	4.49186
681.714	4.46646
684.607	4.91105
687.5	3.27366
690.393	2.13056
693.285	3.32706
696.178	2.93107
699.071	2.97577
701.963	2.04747
704.856	3.21582
707.749	2.61088
710.641	2.50633
713.534	3.74319
716.427	4.30557
719.319	3.57044
722.212	3.62342
725.105	2.176
727.998	4.14692
730.89	3.68266
733.783	4.41318
736.676	3.24082
739.568	3.72982
742.461	3.68556
745.354	2.6971
748.246	3.47278
751.139	3.97741
754.032	3.68033
756.925	2.8978
759.817	3.10808
762.71	2.13351
765.603	2.3159
768.495	2.9019
771.388	2.78515
774.281	3.38127
777.173	3.04636
780.066	2.98984
782.959	3.51301
785.852	2.17945
788.744	2.83034
791.637	3.49092
794.53	2.75706
797.422	2.63708
800.315	3.18985
803.208	3.16329
806.101	3.18841
808.993	3.1878
811.886	3.95466
814.779	2.45461
817.671	2.50745
820.564	3.85784
823.457	4.32434
826.349	3.36591
829.242	3.55929
832.135	3.94949
835.028	3.89385
837.92	3.24854
840.813	3.43401
843.706	4.32474
846.598	3.58162
849.491	3.22191
852.384	2.81442
855.276	3.97336
858.169	1.52791
861.062	2.44865
863.955	2.90996
866.847	3.26462
869.74	2.73948
872.633	3.20719
875.525	3.88012
878.418	3.03239
881.311	4.49848
884.203	3.99808
887.096	3.65548
889.989	4.01096
892.881	3.18449
895.774	2.76128
898.667	3.16337
901.56	2.87624
904.452	3.68363
907.345	2.85994
910.238	2.87839
913.13	3.23999
916.023	3.33867
918.916	2.58229
921.808	3.88969
924.701	3.08149
927.594	2.83482
930.487	4.58635
933.379	2.98484
936.272	2.7593
939.165	3.76216
942.057	3.8526
944.95	3.58647
947.843	2.10493
950.736	2.36294
953.628	2.20081
956.521	2.58366
959.414	2.42272
962.306	2.76673
965.199	3.24096
968.092	3.76255
970.984	3.04457
973.877	2.593
976.77	3.07895
979.663	2.86221
982.555	1.14237
985.448	2.89257
988.341	3.15652
991.233	3.1581
994.126	3.01232
997.019	2.85144
999.911	2.42768
1002.8	4.01859
1005.7	3.07057
1008.59	4.06791
1011.48	2.79028
1014.38	3.82273
1017.27	3.03686
1020.16	3.54677
1023.05	3.52968
1025.95	2.13298
1028.84	1.90735
1031.73	2.08786
1034.62	1.37809
1037.52	2.90512
1040.41	2.4767
1043.3	2.86305
1046.19	3.66967
1049.09	2.8578
1051.98	3.03218
1054.87	2.14551
1057.77	4.03506
1060.66	2.65552
1063.55	2.83731
1066.44	2.31428
1069.34	3.21269
1072.23	3.33782
1075.12	2.3304
1078.01	2.71803
1080.91	3.08802
1083.8	2.90988
1086.69	2.34395
1089.59	3.09996
1092.48	2.86451
1095.37	3.68174
1098.26	2.7063
1101.16	2.01465
1104.05	2.46156
1106.94	3.61881
1109.83	2.29656
1112.73	3.44654
1115.62	1.48691
1118.51	3.54191
1121.4	3.10102
1124.3	1.60604
1127.19	3.87354
1130.08	3.07819
1132.98	3.64474
1135.87	2.95044
1138.76	3.18487
1141.65	3.83096
1144.55	2.36282
1147.44	2.28136
1150.33	3.23922
1153.22	2.68716
1156.12	2.56493
1159.01	3.29866
1161.9	2.58435
1164.8	2.41604
1167.69	2.77035
1170.58	2.16027
1173.47	2.28707
1176.37	3.43778
1179.26	3.38934
1182.15	3.11223
1185.04	2.98954
1187.94	2.34681
1190.83	3.51531
1193.72	2.23693
1196.62	2.72872
1199.51	3.26573
1202.4	2.47262
1205.29	2.78053
1208.19	2.92867
1211.08	2.45654
1213.97	4.17425
1216.86	3.70914
1219.76	2.85619
1222.65	2.2578
1225.54	1.61222
1228.43	3.29388
1231.33	4.94747
1234.22	3.77886
1237.11	1.7369
1240.01	4.0286
1242.9	3.15675
1245.79	3.65137
1248.68	2.67405
1251.58	2.8993
1254.47	4.17727
1257.36	2.87581
1260.25	3.7982
1263.15	3.44396
1266.04	2.2218
1268.93	3.27116
1271.83	3.15109
1274.72	4.33383
1277.61	3.65667
1280.5	2.9633
1283.4	3.24683
