Measurement: Raman, 532 nm, unoriented, Raman Data RAW
Mineral: Sylvite
Rruff sample: R050166
Ideal chemistry: KCl
Locality: Salton Sea, Imperial County, California, USA
Source: Marcus Origlieri
Description: Pale blue octahedral crystals
Raman shift (cm-1)	intensity
178.72	212.678
181.612	217.298
184.505	218.057
187.398	222.057
190.29	219.986
193.183	219.95
196.076	228.758
198.968	230.442
201.861	234.088
204.754	240.972
207.647	241.568
210.539	234.366
213.432	235.653
216.325	233.504
219.217	225.439
222.11	218.646
225.003	215.63
227.895	213.96
230.788	207.678
233.681	205.914
236.573	201.901
239.466	201.311
242.359	198.145
245.252	198.511
248.144	190.345
251.037	195.37
253.93	190.383
256.822	193.075
259.715	190.561
262.608	194.337
265.5	188.267
268.393	189.901
271.286	191.159
274.179	189.653
277.071	193.334
279.964	190.898
282.857	190.14
285.75	194.166
288.642	196.897
291.535	190.983
294.428	191.185
297.32	189.287
300.213	183.467
303.106	185.454
305.998	184.802
308.891	182.049
311.784	178.397
314.676	178.581
317.569	178.422
320.462	176.978
323.355	179.905
326.247	177.937
329.14	177.695
332.033	177.877
334.925	175.464
337.818	179.377
340.711	180.132
343.603	179.811
346.496	176.5
349.389	177.499
352.281	182.044
355.174	181.68
358.067	177.512
360.96	180.471
363.852	178.513
366.745	178.224
369.638	179.822
372.53	179.133
375.423	177.307
378.316	176.825
381.209	177.319
384.101	179.903
386.994	178.488
389.887	180.197
392.779	174.98
395.672	176.14
398.565	174.878
401.457	179.253
404.35	181.695
407.243	178.761
410.135	179.802
413.028	175.825
415.921	178.407
418.814	181.235
421.706	178.649
424.599	179.265
427.492	180.091
430.384	182.455
433.277	180.198
436.17	180.072
439.062	177.332
441.955	181.164
444.848	184.015
447.741	178.946
450.633	179.263
453.526	178.644
456.419	179.236
459.311	181.513
462.204	185.404
465.097	177.278
467.99	182.972
470.882	180.713
473.775	186.267
476.668	185.502
479.56	180.109
482.453	185.452
485.346	185.369
488.238	184.28
491.131	183.385
494.024	185.753
496.916	186.346
499.809	182.057
502.702	183.871
505.595	182.601
508.487	186.117
511.38	184.736
514.273	183.168
517.165	184.308
520.058	183.165
522.951	182.114
525.844	183.807
528.736	183.613
531.629	190.549
534.522	186.317
537.414	185.131
540.307	188.111
543.2	187.372
546.092	187.395
548.985	186.823
551.878	190.02
554.771	189.257
557.663	187.605
560.556	187.161
563.449	184.885
566.341	183.671
569.234	189.678
572.127	183.653
575.019	189.536
577.912	186.519
580.805	185.911
583.698	187.589
586.59	185.986
589.483	188.683
592.376	189.025
595.268	183.206
598.161	184.734
601.054	188.478
603.946	187.68
606.839	186.24
609.732	187.773
612.625	184.656
615.517	189.057
618.41	187.571
621.303	186.37
624.195	186.932
627.088	187.951
629.981	187.526
632.873	187.274
635.766	188.723
638.659	189.008
641.552	187.797
644.444	188.675
647.337	186.766
650.23	190.305
653.122	186.255
656.015	190.023
658.908	188.861
661.8	189.313
664.693	189.673
667.586	187.326
670.479	190.637
673.371	192.744
676.264	194.12
679.157	190.774
682.049	192.297
684.942	194.509
687.835	193.861
690.727	190.349
693.62	191.042
696.513	193.7
699.405	190.29
702.298	189.373
705.191	190.118
708.084	191.288
710.976	191.546
713.869	191.42
716.762	193.903
719.654	194.019
722.547	193.11
725.44	194.357
728.332	192.03
731.225	196.007
734.118	194.789
737.011	197.666
739.903	195.51
742.796	195.066
745.689	193.744
748.581	194.665
751.474	196.655
754.367	196.417
757.26	193.76
760.152	194.119
763.045	197.476
765.938	195.827
768.83	194.934
771.723	196.171
774.616	194.738
777.508	197.906
780.401	196.024
783.294	199.74
786.187	197.158
789.079	195.677
791.972	198.191
794.865	198.768
797.757	198.176
800.65	197.965
803.543	197.469
806.435	199.51
809.328	199.595
812.221	198.752
815.114	202.166
818.006	199.294
820.899	204.53
823.792	199.844
826.684	202.227
829.577	202.238
832.47	199.803
835.362	201.53
838.255	200.838
841.148	201.326
844.04	202.547
846.933	201.268
849.826	204.414
852.719	203.308
855.611	202.4
858.504	200.76
861.397	202.426
864.289	197.994
867.182	204.186
870.075	205.085
872.967	205.359
875.86	204.735
878.753	205.473
881.646	208.368
884.538	208.354
887.431	206.838
890.324	206.879
893.216	206.992
896.109	205.478
899.002	203.77
901.894	201.121
904.787	203.198
907.68	203.221
910.573	205.971
913.465	204.394
916.358	207.098
919.251	207.486
922.143	204.678
925.036	207.32
927.929	208.374
930.822	208.563
933.714	204.396
936.607	205.144
939.5	203.485
942.392	207.175
945.285	205.501
948.178	210.099
951.07	205.67
953.963	207.736
956.856	206.61
959.749	207.233
962.641	207.664
965.534	207.834
968.427	210.405
971.319	206.813
974.212	208.49
977.105	208.488
979.997	206.773
982.89	207.209
985.783	208.847
988.676	206.871
991.568	204.657
994.461	210.186
997.354	208.375
1000.25	210.196
1003.14	209.077
1006.03	210.555
1008.92	207.575
1011.82	212.112
1014.71	209.339
1017.6	212.431
1020.5	208.454
1023.39	211.736
1026.28	211.131
1029.17	213.25
1032.07	209.471
1034.96	211.58
1037.85	210.366
1040.74	210.315
1043.64	210.117
1046.53	213.894
1049.42	211.413
1052.32	211.781
1055.21	212.394
1058.1	212.222
1060.99	214.369
1063.89	215.117
1066.78	214.516
1069.67	213.735
1072.56	210.959
1075.46	215.875
1078.35	213.133
1081.24	215.295
1084.13	212.974
1087.03	214.438
1089.92	212.818
1092.81	215.695
1095.7	213.46
1098.6	211.897
1101.49	216.002
1104.38	213.963
1107.28	216.705
1110.17	214.51
1113.06	213.216
1115.95	217.394
1118.85	216.912
1121.74	216.893
1124.63	216.585
1127.53	215.262
1130.42	216.195
1133.31	217.278
1136.2	214.481
1139.1	216.812
1141.99	218.109
1144.88	220.202
1147.77	216.136
1150.67	214.49
1153.56	218.613
1156.45	214.44
1159.35	215.564
1162.24	219.598
1165.13	218.674
1168.02	216.077
1170.92	218.872
1173.81	217.618
1176.7	217.751
1179.59	218.194
1182.49	216.908
1185.38	216.778
1188.27	220.387
1191.16	220.069
1194.06	220.087
1196.95	221.621
1199.84	221.276
1202.73	219.764
1205.63	219.185
1208.52	217.961
1211.41	221.659
1214.31	220.927
1217.2	220.026
1220.09	220.496
1222.98	220.794
1225.88	220.971
1228.77	222.956
1231.66	220.964
1234.56	220.345
1237.45	221.18
1240.34	219.933
1243.23	220.328
1246.13	224.521
1249.02	221.705
1251.91	220.898
1254.8	222.581
1257.7	225.165
1260.59	222.886
1263.48	222.451
1266.38	224.821
1269.27	225.652
1272.16	225.134
1275.05	224.897
1277.95	223.56
1280.84	226.657
1283.73	223.575
1286.62	223.788
1289.52	226.47
1292.41	226.871
1295.3	228.356
1298.19	227.947
1301.09	227.443
