Measurement: Raman, 532 nm, unoriented, Raman Data Processed
Mineral: Sylvanite
Rruff sample: R070504
Ideal chemistry: AgAuTe_4_
Locality: Boulder County, Colorado, USA
Source: James Shigley
Description: Columnar light yellow metallic crystals associated with quartz
Raman shift (cm-1)	intensity
158.833	0
161.726	0.446411
164.619	12.2165
167.512	0.474121
170.404	25.5336
173.297	51.4383
176.19	8.18713
179.082	25.8321
181.975	16.0533
184.868	13.8804
187.761	18.1448
190.653	20.5651
193.546	21.3056
196.439	31.7115
199.331	3.18976
202.224	25.3511
205.117	13.6299
208.009	21.4997
210.902	41.9393
213.795	6.20044
216.688	23.4144
219.58	10.3838
222.473	21.3012
225.366	64.6948
228.258	58.0889
231.151	34.954
234.044	59.5631
236.936	34.0248
239.829	26.2314
242.722	30.7252
245.614	12.0828
248.507	14.3104
251.4	47.865
254.293	32.4357
257.185	29.8524
260.078	25.3024
262.971	27.7768
265.863	31.278
268.756	50.7538
271.649	44.9507
274.541	34.0057
277.434	20.0966
280.327	51.4611
283.22	27.8258
286.112	58.1514
289.005	31.4948
291.898	46.2248
294.79	32.5771
297.683	25.4477
300.576	48.342
303.469	24.8486
306.361	27.9116
309.254	32.2145
312.147	16.576
315.039	44.2165
317.932	29.1291
320.825	24.6823
323.717	28.5147
326.61	27.0187
329.503	15.472
332.396	26.0095
335.288	15.9816
338.181	7.59521
341.074	0.404907
343.966	37.4637
346.859	10.9805
349.752	27.1668
352.644	32.7002
355.537	65.6284
358.43	17.8873
361.322	31.442
364.215	52.3915
367.108	33.7774
370.001	3.71509
372.893	42.7227
375.786	15.7639
378.679	33.2991
381.572	1.26495
384.464	25.0577
387.357	37.2608
390.25	18.3204
393.142	9.19238
396.035	15.5366
398.928	4.34521
401.82	20.5002
404.713	8.74017
407.606	19.1927
410.498	20.932
413.391	20.8511
416.284	24.722
419.177	5.08856
422.069	22.6337
424.962	7.28833
427.855	21.22
430.747	15.4052
433.64	16.5931
436.533	5.00446
439.425	21.2009
442.318	26.0664
445.211	18.308
448.104	4.4505
450.996	46.3607
453.889	13.0048
456.782	42.9344
459.674	32.8334
462.567	44.7765
465.46	11.3085
468.353	47.2039
471.245	19.4511
474.138	19.9492
477.031	3.41693
479.923	5.22632
482.816	15.315
485.709	17.24
488.601	9.50244
491.494	28.1862
494.387	17.9053
497.279	4.12195
500.172	0.91687
503.065	21.8358
505.958	8.96448
508.85	9.91113
511.743	49.2455
514.636	21.5577
517.528	34.1671
520.421	19.7308
523.314	9.67114
526.207	5.89356
529.099	21.7302
531.992	25.8131
534.885	6.58106
537.777	34.9025
540.67	21.1754
543.563	28.4602
546.455	29.9249
549.348	32.0713
552.241	19.7117
555.134	34.6562
558.026	29.3031
560.919	15.9015
563.812	20.0564
566.704	36.6166
569.597	13.2393
572.49	19.0498
575.382	39.2263
578.275	33.2213
581.168	21.7561
584.061	33.9414
586.953	7.51892
589.846	16.4878
592.739	3.13135
595.631	20.6882
598.524	11.2002
601.417	1.50391
604.309	43.0071
607.202	33.648
610.095	6.69311
612.987	21.2722
615.88	12.5352
618.773	11.2728
621.666	12.7196
624.558	27.2594
627.451	22.8201
630.344	19.3081
633.236	20.3331
636.129	27.2717
639.022	25.536
641.915	12.1611
644.807	8.78748
647.7	15.8463
650.593	29.5763
653.485	14.1694
656.378	35.334
659.271	13.1742
662.163	24.2827
665.056	43.8694
667.949	34.0262
670.842	27.5662
673.734	6.39917
676.627	48.3478
679.52	20.2991
682.412	10.46
685.305	22.8303
688.198	35.7367
691.091	31.5292
693.983	14.533
696.876	12.4313
699.769	27.0836
702.661	6.53345
705.554	10.4901
708.447	36.0442
711.339	5.95019
714.232	24.5022
717.125	8.73474
720.018	8.55872
722.91	10.9326
725.803	4.17676
728.696	8.70654
731.588	30.6952
734.481	27.899
737.374	0.417236
740.266	25.9916
743.159	46.5875
746.052	30.2773
748.944	17.0503
751.837	34.7393
754.73	19.9907
757.623	11.4759
760.515	2.10828
763.408	24.8864
766.301	0.295532
769.193	16.5472
772.086	15.4884
774.979	18.384
777.871	22.1267
780.764	17.8369
783.657	4.97107
786.55	34.7229
789.442	26.0621
792.335	29.6796
795.228	43.479
798.12	2.84363
801.013	20.4092
803.906	5.98792
806.798	11.5095
809.691	31.4994
812.584	43.7832
815.477	23.9857
818.369	23.8364
821.262	38.7122
824.155	32.2277
827.047	27.3645
829.94	21.4938
832.833	2.5846
835.726	16.6001
838.618	10.0598
841.511	31.3378
844.404	40.5765
847.296	14.6207
850.189	17.9526
853.082	8.44214
855.975	29.1064
858.867	17.2648
861.76	29.6427
864.653	21.7545
867.545	13.4065
870.438	34.1951
873.331	27.8893
876.223	28.7703
879.116	35.7716
882.009	30.4102
884.902	14.7168
887.794	17.7533
890.687	26.9399
893.58	33.1084
896.472	41.5151
899.365	4.61816
902.258	19.4435
905.15	10.2008
908.043	52.6585
910.936	18.0911
913.828	20.5192
916.721	13.6408
919.614	11.6675
922.507	51.0207
925.399	8.66089
928.292	33.9775
931.185	17.3922
934.077	33.1399
936.97	6.2793
939.863	21.6764
942.755	22.9808
945.648	23.214
948.541	8.41882
951.434	17.0447
954.326	33.9027
957.219	12.8959
960.112	19.6064
963.004	23.411
965.897	39.2379
968.79	24.826
971.683	53.7651
974.575	1.81763
977.468	35.2769
980.361	8.62195
983.253	34.9303
986.146	30.6886
989.039	24.1144
991.931	35.8176
994.824	35.0679
997.717	9.26001
1000.61	19.0776
1003.5	16.9607
1006.39	15.7694
1009.29	21.364
1012.18	5.69641
1015.07	69.2472
1017.97	31.7351
1020.86	13.4473
1023.75	32.6565
1026.64	7.6106
1029.54	21.5619
1032.43	48.3665
1035.32	28.6868
1038.21	3.54968
1041.11	16.7763
1044	30.8232
1046.89	35.425
1049.79	37.7483
1052.68	18.589
1055.57	7.02014
1058.46	6.57422
1061.36	24.3691
1064.25	32.5659
1067.14	33.1381
1070.03	24.356
1072.93	38.3138
1075.82	42.5409
1078.71	52.448
1081.61	53.2398
1084.5	40.3182
1087.39	42.8502
1090.28	6.83325
1093.18	25.8047
1096.07	31.2329
1098.96	19.5695
1101.85	14.9864
1104.75	2.8219
1107.64	31.6809
1110.53	25.5007
1113.42	33.0861
1116.32	30.6562
1119.21	29.2716
1122.1	34.7926
1125	28.5561
1127.89	35.3584
1130.78	15.6261
1133.67	19.8885
1136.57	10.0845
1139.46	12.1493
1142.35	11.6928
1145.24	30.9537
1148.14	27.2557
1151.03	13.6289
1153.92	3.16736
1156.82	18.1736
1159.71	37.703
1162.6	11.6737
1165.49	0.145996
1168.39	0.402832
1171.28	6.07349
1174.17	19.7683
1177.06	14.0325
1179.96	23.7283
1182.85	37.485
1185.74	16.6544
1188.63	32.667
1191.53	26.3942
1194.42	34.5876
1197.31	5.44019
1200.21	54.9117
1203.1	1.09216
1205.99	5.82434
1208.88	14.7737
1211.78	35.2382
1214.67	15.5825
1217.56	52.4617
1220.45	36.2539
1223.35	25.5917
1226.24	7.16394
1229.13	4.80981
1232.03	25.7993
1234.92	0.003052
1237.81	9.92566
1240.7	29.4086
1243.6	11.1323
1246.49	2.41065
1249.38	4.69238
1252.28	3.55188
1255.17	7.927
1258.06	0.053345
1260.95	22.299
1263.85	28.8385
1266.74	47.7754
1269.63	39.2929
1272.52	50.9799
1275.42	9.77979
1278.31	24.7222
1281.2	6.17248
1284.09	38.7263
1286.99	4.53235
1289.88	20.1204
