Measurement: Raman, 785 nm, unoriented, Raman Data Processed
Mineral: Sylvanite
Rruff sample: R070504
Ideal chemistry: AgAuTe_4_
Locality: Boulder County, Colorado, USA
Source: James Shigley
Description: Columnar light yellow metallic crystals associated with quartz
Raman shift (cm-1)	intensity
172.022	0
174.915	6.52558
177.808	11.1826
180.7	11.9794
183.593	48.327
186.486	43.7741
189.378	3.04918
192.271	17.5699
195.164	31.2984
198.056	20.3134
200.949	22.0427
203.842	0.972955
206.735	17.7795
209.627	3.39381
212.52	2.81203
215.413	20.3646
218.305	0.807121
221.198	37.3921
224.091	37.0627
226.983	53.4803
229.876	67.5155
232.769	54.2947
235.662	38.6792
238.554	79.2194
241.447	50.5585
244.34	3.58707
247.232	59.4462
250.125	33.2388
253.018	72.45
255.911	49.5298
258.803	38.5966
261.696	55.2463
264.589	63.9613
267.481	39.8621
270.374	11.0205
273.267	58.4493
276.159	24.2839
279.052	28.7558
281.945	31.6323
284.837	20.6428
287.73	37.8565
290.623	17.9345
293.516	16.4265
296.408	25.2979
299.301	20.1701
302.194	28.1595
305.086	18.4257
307.979	20.5368
310.872	12.6391
313.764	13.6155
316.657	6.69144
319.55	13.7525
322.442	8.63713
325.335	12.9543
328.228	0.748092
331.121	1.30785
334.013	12.3117
336.906	21.6943
339.799	0.376372
342.691	20.2124
345.584	23.8585
348.477	10.3997
351.37	16.0338
354.262	4.04943
357.155	24.2936
360.048	7.00632
362.94	33.2855
365.833	8.71651
368.726	2.92999
371.618	0.671952
374.511	14.0725
377.404	9.91707
380.296	29.5489
383.189	8.58161
386.082	0.723961
388.975	29.2549
391.867	7.93913
394.76	9.61876
397.653	1.29678
400.545	22.3407
403.438	3.77694
406.331	32.1044
409.224	13.9727
412.116	11.6188
415.009	1.19918
417.902	32.5719
420.794	19.9759
423.687	42.9981
426.58	0.502241
429.472	2.83409
432.365	31.7521
435.258	18.3055
438.151	19.3729
441.043	5.90726
443.936	28.0282
446.829	31.3968
449.721	13.7631
452.614	16.8215
455.507	19.1375
458.399	23.4714
461.292	21.0008
464.185	31.3399
467.077	32.4711
469.97	39.5609
472.863	5.06012
475.756	19.489
478.648	32.9838
481.541	15.1073
484.434	29.263
487.326	20.7254
490.219	17.4305
493.112	3.5226
496.005	19.5065
498.897	2.10656
501.79	5.89341
504.683	11.9469
507.575	19.5868
510.468	13.8756
513.361	25.4917
516.253	32.0351
519.146	38.3052
522.039	18.691
524.932	3.11687
527.824	52.0327
530.717	23.0864
533.61	1.82614
536.502	38.2882
539.395	12.6116
542.288	11.8726
545.18	18.4246
548.073	16.0137
550.966	32.0624
553.858	19.6719
556.751	16.4469
559.644	21.8933
562.537	35.5234
565.429	16.8621
568.322	2.12936
571.215	25.7796
574.107	10.2657
577	5.46373
579.893	25.827
582.785	9.44002
585.678	27.3513
588.571	20.0556
591.463	14.3297
594.356	18.5444
597.249	18.6341
600.142	10.5498
603.034	25.2736
605.927	21.014
608.82	1.93827
611.712	12.8458
614.605	14.7435
617.498	14.6749
620.39	12.6382
623.283	10.8618
626.176	8.7676
629.069	34.0459
631.961	29.3661
634.854	11.3691
637.747	26.3181
640.639	40.5581
643.532	8.57119
646.425	6.0786
649.317	6.75169
652.21	34.8783
655.103	6.07904
657.995	21.1234
660.888	10.0715
663.781	30.4492
666.674	0.935867
669.566	0.142705
672.459	6.92614
675.352	1.91938
678.244	15.7388
681.137	8.45543
684.03	19.8245
686.923	1.60519
689.815	11.1677
692.708	19.6921
695.601	5.66283
698.493	26.189
701.386	25.051
704.279	6.16919
707.171	23.4113
710.064	21.569
712.957	3.08285
715.85	4.78699
718.742	20.1317
721.635	13.8674
724.528	25.1268
727.42	2.08594
730.313	29.889
733.206	18.526
736.098	35.2874
738.991	28.3855
741.884	2.04274
744.777	28.7034
747.669	10.1649
750.562	18.1942
753.455	10.3649
756.347	16.5081
759.24	8.47882
762.133	14.4104
765.025	14.3661
767.918	26.0482
770.811	1.97044
773.703	0.787659
776.596	0.028003
779.489	21.9233
782.382	5.25515
785.274	0.464909
788.167	28.2461
791.06	0.819372
793.952	8.08923
796.845	19.7951
799.738	24.2736
802.63	23.9338
805.523	8.68008
808.416	12.3838
811.309	21.3381
814.201	19.6367
817.094	6.63785
819.987	2.48356
822.879	3.10705
825.772	17.2729
828.665	2.78061
831.558	16.5445
834.45	14.2044
837.343	0.033093
840.236	23.563
843.128	9.2728
846.021	13.0953
848.914	1.58463
851.806	17.9501
854.699	0.912212
857.592	4.50865
860.484	13.1392
863.377	14.4838
866.27	0.503627
869.163	6.9927
872.055	1.25572
874.948	0.242095
877.841	2.24473
880.733	13.2898
883.626	30.5507
886.519	6.44014
889.411	12.2585
892.304	20.5142
895.197	20.4522
898.09	10.4932
900.982	17.5072
903.875	18.6949
906.768	9.645
909.66	6.63201
912.553	7.61893
915.446	11.154
918.338	13.9991
921.231	4.74488
924.124	2.0996
927.016	28.6506
929.909	19.3322
932.802	20.5382
935.695	0.804811
938.587	8.92113
941.48	15.7469
944.373	19.7988
947.265	16.906
950.158	7.54486
953.051	0.821898
955.943	0.738738
958.836	24.9865
961.729	23.6735
964.622	0.919895
967.514	19.5078
970.407	1.93691
973.3	2.88249
976.192	0.530378
979.085	2.3894
981.978	10.1841
984.87	10.3607
987.763	12.1848
990.656	15.9554
993.549	0.018218
996.441	4.02714
999.334	10.1989
1002.23	4.16134
1005.12	9.1825
1008.01	13.4772
1010.9	2.17075
1013.8	16.5897
1016.69	6.18925
1019.58	18.6944
1022.48	6.05844
1025.37	29.3078
1028.26	6.04367
1031.15	7.62087
1034.05	6.11801
1036.94	37.7606
1039.83	0.551463
1042.72	30.0469
1045.62	34.4196
1048.51	1.61059
1051.4	16.1909
1054.3	28.8953
1057.19	1.71996
1060.08	12.3622
1062.97	26.9292
1065.87	24.9841
1068.76	32.7736
1071.65	9.12538
1074.54	11.051
1077.44	1.49832
1080.33	12.2266
1083.22	7.33358
1086.12	23.6388
1089.01	9.16984
1091.9	19.7135
1094.79	17.0955
1097.69	20.5574
1100.58	10.2251
1103.47	18.0681
1106.36	15.1273
1109.26	2.97516
1112.15	0.758586
1115.04	22.1066
1117.93	5.01526
1120.83	26.5329
1123.72	23.5857
1126.61	0.040487
1129.51	20.7188
1132.4	30.5124
1135.29	24.9901
1138.18	45.8841
1141.08	2.45683
1143.97	8.24859
1146.86	12.4414
1149.75	14.0509
1152.65	12.0085
1155.54	22.2718
1158.43	6.69512
1161.33	1.32442
1164.22	4.59
1167.11	18.3202
1170	21.5828
1172.9	8.43617
1175.79	13.3192
1178.68	17.3581
1181.57	14.2274
1184.47	1.54848
1187.36	0.074734
1190.25	0.977817
1193.14	17.0866
1196.04	4.24805
1198.93	8.92783
1201.82	0.303662
1204.72	39.2685
1207.61	10.2707
1210.5	16.456
1213.39	26.4672
1216.29	31.3211
1219.18	1.56591
1222.07	4.51448
1224.96	0.750691
1227.86	14.6605
1230.75	2.3296
1233.64	33.2919
1236.54	1.1597
1239.43	17.3056
1242.32	10.7554
1245.21	12.5978
1248.11	0.91702
1251	2.86097
1253.89	30.8413
1256.78	18.8989
1259.68	12.9725
1262.57	0
