Measurement: Raman, 785 nm, unoriented, Raman Data Processed
Mineral: Synchysite-(Y)
Rruff sample: R060984
Ideal chemistry: CaY(CO_3_)_2_F
Locality: Scrub Oaks mine, near Dover, Morris County, New Jersey, USA
Source: Michael Scott
Description: Brownish-red earthy blebs associated with quartz and magnetite
Raman shift (cm-1)	intensity
125.385	0
128.278	51.2412
131.17	126.693
134.063	165.71
136.956	21.3864
139.849	19.7368
142.741	90.6885
145.634	300.979
148.527	459.981
151.419	560.303
154.312	492.375
157.205	405.83
160.097	396.054
162.99	494.457
165.883	540.626
168.775	595.185
171.668	598.254
174.561	535.411
177.454	492.197
180.346	445.886
183.239	413.866
186.132	384.069
189.024	379.135
191.917	310.925
194.81	331.713
197.702	307.385
200.595	275.151
203.488	291.162
206.381	277.241
209.273	229.519
212.166	240.419
215.059	246.721
217.951	234.165
220.844	319.899
223.737	320.887
226.629	366.19
229.522	352.72
232.415	344.71
235.308	359.787
238.2	380.381
241.093	359.093
243.986	387.766
246.878	357.854
249.771	392.93
252.664	399.252
255.556	374.097
258.449	325.854
261.342	280.575
264.235	288.173
267.127	270.95
270.02	208.076
272.913	176.584
275.805	135.682
278.698	172.274
281.591	167.198
284.483	115.656
287.376	127.52
290.269	100.417
293.161	106.791
296.054	62.0288
298.947	56.6418
301.84	47.2866
304.732	8.49756
307.625	47.2942
310.518	32.3162
313.41	35.8633
316.303	21.7556
319.196	3.13672
322.089	22.3767
324.981	17.3777
327.874	11.2371
330.767	21.8755
333.659	45.0185
336.552	2.42407
339.445	13.9509
342.337	24.2742
345.23	18.7195
348.123	3.13477
351.015	9.07385
353.908	10.5652
356.801	2.33228
359.693	10.2113
362.586	28.9385
365.479	42.8821
368.372	6.0426
371.264	11.9214
374.157	6.73608
377.05	38.1721
379.942	0.04248
382.835	13.8155
385.728	12.5501
388.62	48.0192
391.513	63.7291
394.406	37.1036
397.299	75.9382
400.191	64.9663
403.084	95.1328
405.977	90.8342
408.869	146.882
411.762	127.209
414.655	121.004
417.548	104.791
420.44	107.246
423.333	117.306
426.226	109.781
429.118	89.1166
432.011	106.157
434.904	102.851
437.796	121.153
440.689	96.0796
443.582	133.456
446.474	131.141
449.367	161.652
452.26	128.401
455.153	151.155
458.045	151.226
460.938	179.339
463.831	137.738
466.723	140.993
469.616	155.548
472.509	154.04
475.401	137.143
478.294	107.236
481.187	107.292
484.08	114.718
486.972	128.432
489.865	117.381
492.758	125.634
495.65	109.392
498.543	99.4651
501.436	101.691
504.329	32.0537
507.221	50.7963
510.114	67.0426
513.006	86.2371
515.899	63.2622
518.792	78.4996
521.685	44.9639
524.577	57.598
527.47	6.22461
530.363	25.8047
533.255	23.7925
536.148	2.29907
539.041	4.34119
541.933	7.0415
544.826	2.49438
547.719	4.27991
550.612	16.885
553.504	12.1768
556.397	5.26917
559.29	9.59839
562.182	4.09265
565.075	13.5902
567.968	10.7888
570.861	16.5085
573.753	0.146606
576.646	13.6912
579.539	23.9491
582.431	0.566284
585.324	25.0548
588.217	26.6287
591.109	9.63403
594.002	20.6558
596.895	59.5999
599.788	44.9188
602.68	25.6086
605.573	70.4116
608.466	106.799
611.358	84.345
614.251	95.5936
617.144	62.7765
620.036	34.0071
622.929	50.4619
625.822	58.1266
628.715	58.5398
631.607	42.1638
634.5	60.1251
637.393	40.9133
640.285	72.5187
643.178	37.4623
646.071	36.1908
648.963	40.4714
651.856	11.0043
654.749	29.2217
657.641	23.8063
660.534	21.9327
663.427	14.6309
666.32	6.95642
669.212	22.2983
672.105	10.9011
674.998	12.368
677.89	2.91583
680.783	2.4986
683.676	7.20544
686.568	3.55518
689.461	16.289
692.354	27.2779
695.246	33.3388
698.139	20.788
701.032	31.6787
703.925	6.06036
706.817	10.4263
709.71	29.4307
712.603	7.95044
715.495	31.8533
718.388	28.4321
721.281	22.6978
724.173	28.4978
727.066	34.6842
729.959	35.5316
732.852	20.4453
735.744	25.2029
738.637	14.6033
741.53	29.4323
744.422	18.85
747.315	29.5992
750.208	36.2892
753.101	16.3302
755.993	9.30847
758.886	24.8948
761.779	25.8878
764.671	24.6232
767.564	24.4689
770.457	16.8335
773.349	16.9759
776.242	38.9632
779.135	28.6117
782.028	44.1935
784.92	17.7795
787.813	37.5275
790.706	28.352
793.598	30.2739
796.491	27.9651
799.384	19.2378
802.276	10.7736
805.169	15.8461
808.062	31.233
810.955	5.19934
813.847	30.8696
816.74	27.5538
819.633	32.3118
822.525	22.7044
825.418	4.60083
828.311	2.78784
831.203	11.0288
834.096	20.9194
836.989	2.54169
839.881	10.8663
842.774	22.8568
845.667	10.3018
848.56	11.7493
851.452	6.40564
854.345	2.74322
857.238	5.8822
860.13	0.860718
863.023	0.459656
865.916	15.3688
868.808	6.19263
871.701	13.009
874.594	0.962158
877.486	9.83392
880.379	19.3206
883.272	0.827515
886.165	10.6582
889.057	4.47858
891.95	16.5723
894.843	5.3172
897.735	4.66657
900.628	13.3835
903.521	16.4476
906.413	21.5693
909.306	10.2664
912.199	18.8491
915.092	3.95282
917.984	32.2332
920.877	0.816284
923.77	15.3171
926.662	38.0021
929.555	54.4289
932.448	40.9202
935.341	48.4535
938.233	50.9828
941.126	70.5693
944.019	62.2056
946.911	46.7253
949.804	99.3665
952.697	99.631
955.589	127.424
958.482	109.399
961.375	156.451
964.268	152.363
967.16	160.044
970.053	179.228
972.946	194.557
975.838	197.157
978.731	246.836
981.624	254.702
984.516	272.176
987.409	265.769
990.302	292.735
993.194	289.005
996.087	355.113
998.98	356.183
1001.87	381.599
1004.76	380.106
1007.66	364.687
1010.55	409.468
1013.44	469.352
1016.34	516.152
1019.23	579.213
1022.12	602.332
1025.01	661.273
1027.91	659.211
1030.8	656.867
1033.69	623.095
1036.59	567.776
1039.48	544.464
1042.37	480.005
1045.26	450.014
1048.16	392.406
1051.05	326.759
1053.94	237.479
1056.83	203.79
1059.73	119.112
1062.62	81.8369
1065.51	33.7639
1068.4	7.01367
1071.3	86.3174
1074.19	122.6
1077.08	143.355
1079.97	129.393
1082.87	170.514
1085.76	87.4805
1088.65	26.6445
1091.55	41.1035
1094.44	198.244
1097.33	413.533
1100.22	654.869
1103.12	1016.27
1106.01	1438.19
1108.9	1946.21
1111.8	2569.39
1114.69	3205.9
1117.58	4004.71
1120.47	4822.61
1123.37	5599.67
1126.26	6424.05
1129.15	7162.38
1132.04	7950.41
1134.94	8488.75
1137.83	8969.88
1140.72	9330.42
1143.62	9445.96
1146.51	9489.61
1149.4	9176
1152.29	8852.49
1155.19	8239.14
1158.08	7759.72
1160.97	7372.97
1163.86	7384.43
1166.76	7991.11
1169.65	9129.12
1172.54	10680.3
1175.43	12655.3
1178.33	14104.6
1181.22	15001.3
1184.11	14804.5
1187.01	13859.3
1189.9	12721
1192.79	11312.4
1195.68	9706.42
1198.58	8127.93
1201.47	6866.72
1204.36	5488
1207.25	4265.67
1210.15	3325.88
1213.04	2454.7
1215.93	1774.39
1218.83	1187.33
1221.72	658.868
1224.61	335.284
1227.5	86.9863
1230.4	2.97949
1233.29	67.9668
1236.18	83.2041
