Measurement: Raman, 785 nm, unoriented, Raman Data Processed
Mineral: Synchysite-(Ce)
Rruff sample: R060971
Ideal chemistry: CaCe(CO_3_)_2_F
Locality: Val Nalps, Tavetsch, Graubunden, Switzerland
Source: Michael Scott
Description: Yellowish-orange prismatic crystals associated with albite, quartz, hematite and muscovite
Measured chemistry: Ca_1.02_(Ce_0.40_La_0.19_Nd_0.18_Sm_0.07_Y_0.06_Pr_0.05_Gd_0.03_Th_0.02_)_Î£=1.00_(CO_3_)_1.98_F_1.04_
Raman shift (cm-1)	intensity
120.082	0
122.974	23.738
125.867	623.297
128.76	1415.17
131.653	1810.43
134.545	812.663
137.438	84.3311
140.331	172.806
143.223	1550.54
146.116	3144.48
149.009	3900.39
151.901	3536.7
154.794	2830.81
157.687	2125.45
160.579	2126.17
163.472	2366.05
166.365	2196.94
169.258	1724.16
172.15	871.203
175.043	221.539
177.936	241.149
180.828	462.879
183.721	280.143
186.614	40.1914
189.506	205.039
192.399	288.961
195.292	638.955
198.185	757.418
201.077	960.363
203.97	1020.22
206.863	1211.34
209.755	1156
212.648	1543.53
215.541	2222.27
218.434	2846.59
221.326	3571.15
224.219	4243.67
227.112	4934.92
230.004	5524.1
232.897	6378.17
235.79	7201.88
238.682	7995.99
241.575	8335.66
244.468	8637.55
247.36	8951.1
250.253	8984.41
253.146	9157.58
256.038	9069.79
258.931	8836.6
261.824	8651.82
264.717	7805.79
267.609	7189.61
270.502	6348.07
273.395	5562.81
276.287	4825.45
279.18	4282.63
282.073	3744.16
284.966	3399.38
287.858	2955.58
290.751	2634.81
293.644	2659.13
296.536	2580
299.429	2805.42
302.322	3093.49
305.214	3275.88
308.107	3565.88
311	3607.9
313.892	3655.62
316.785	3576.58
319.678	3573.74
322.571	3473.45
325.463	3578.19
328.356	3575.37
331.249	3199.52
334.141	2823.16
337.034	2376.48
339.927	1884.31
342.82	1500.07
345.712	1169.25
348.605	940.087
351.498	720.877
354.39	383.254
357.283	68.8008
360.176	44.2197
363.068	245.393
365.961	220.304
368.854	285.391
371.747	245.56
374.639	44.6865
377.532	84.9658
380.425	35.7725
383.317	54.3486
386.21	43.2773
389.103	69.5732
391.995	151.134
394.888	234.06
397.781	238.849
400.673	306.474
403.566	309.062
406.459	413.934
409.352	396.054
412.244	628.262
415.137	828.923
418.03	1093.51
420.922	1250.59
423.815	1444.49
426.708	1664.13
429.6	1934.35
432.493	2226.35
435.386	2559.59
438.279	2870.23
441.171	3160.77
444.064	3423.7
446.957	3504.92
449.849	3518.34
452.742	3474.86
455.635	3402.63
458.527	3218.88
461.42	3108.38
464.313	2975.7
467.205	2993.05
470.098	2891.63
472.991	2854.68
475.884	2764.87
478.776	2813.79
481.669	2827.02
484.562	2744.44
487.454	2904.05
490.347	2835.78
493.24	2795.7
496.132	2665.3
499.025	2598.4
501.918	2452.58
504.811	2231.23
507.703	2124.29
510.596	2041.35
513.489	1892.19
516.381	1737.62
519.274	1468.32
522.167	1288.08
525.059	1199.97
527.952	981.691
530.845	696.373
533.737	416.97
536.63	274.059
539.523	225.668
542.416	105.711
545.308	14.1104
548.201	105.912
551.094	45.6748
553.986	147.177
556.879	36.6201
559.772	6.65527
562.665	31.8887
565.557	23.6289
568.45	32.5693
571.343	136.659
574.235	250.16
577.128	414.706
580.021	616.408
582.913	819.518
585.806	924.782
588.699	1141.84
591.592	1247.68
594.484	1471.22
597.377	1535.47
600.27	1623.18
603.162	1736.55
606.055	1831.23
608.948	1983.82
611.841	1960.83
614.733	1995.24
617.626	2008.76
620.519	2010.26
623.411	1873.77
626.304	1713.12
629.197	1606.95
632.089	1332.84
634.982	1197.66
637.875	958.644
640.767	767.266
643.66	548.921
646.553	431.688
649.446	297.657
652.338	153.734
655.231	84.7881
658.124	98.053
661.016	81.1792
663.909	22.7505
666.802	19.9751
669.694	26.6189
672.587	67.1834
675.48	4.59521
678.372	51.5312
681.265	95.176
684.158	107.458
687.051	91.6352
689.943	161.805
692.836	224.133
695.729	246.347
698.621	259.335
701.514	296.434
704.407	202.984
707.299	412.649
710.192	458.923
713.085	396.989
715.978	589.967
718.87	505.745
721.763	546.808
724.656	573.011
727.548	472.427
730.441	439.736
733.334	412.847
736.226	489.503
739.119	471.841
742.012	466.217
744.904	361.55
747.797	352.633
750.69	363.406
753.583	344.273
756.475	390.16
759.368	387.478
762.261	390.158
765.153	378.046
768.046	336.541
770.939	433.971
773.832	529.815
776.724	400.437
779.617	560.408
782.51	538.576
785.402	598.278
788.295	613.94
791.188	587.309
794.08	535.326
796.973	432.445
799.866	379.778
802.759	399.438
805.651	332.76
808.544	327.384
811.437	356.862
814.329	269.789
817.222	275.11
820.115	317.785
823.007	231.258
825.9	253.668
828.793	294.24
831.686	236.07
834.578	236.842
837.471	217.949
840.364	277.91
843.256	218.046
846.149	203.833
849.042	181.131
851.934	113.9
854.827	118.537
857.72	11.9492
860.612	31.124
863.505	140.795
866.398	101.989
869.291	132.433
872.183	183.507
875.076	194.872
877.969	141.226
880.861	168.442
883.754	174.486
886.647	206.263
889.539	244.714
892.432	189.867
895.325	207.374
898.218	168.743
901.11	140.697
904.003	6.87695
906.896	38.708
909.788	131.014
912.681	229.69
915.574	276.043
918.466	444.965
921.359	660.584
924.252	807.164
927.145	1083.4
930.037	1227.34
932.93	1428.21
935.823	1659.62
938.715	1790.23
941.608	1874.93
944.501	2066
947.393	2169.28
950.286	2449.61
953.179	2812.57
956.072	3025.89
958.964	3493.78
961.857	4018.06
964.75	4618.54
967.642	5223.37
970.535	5908.58
973.428	6533.31
976.32	7312.77
979.213	7953.65
982.106	8612.3
984.999	9233.49
987.891	9675.2
990.784	10244.1
993.677	10805.7
996.569	11376.2
999.462	12005.2
1002.36	12665.1
1005.25	13435.1
1008.14	14335.5
1011.03	15607.8
1013.93	17215.5
1016.82	19121.2
1019.71	21037.8
1022.6	22877.8
1025.5	24208.2
1028.39	25024.6
1031.28	24603.9
1034.17	23315.1
1037.07	21883.3
1039.96	20242
1042.85	18532.3
1045.74	16683.6
1048.64	14578.6
1051.53	12574.6
1054.42	10373
1057.32	8257.27
1060.21	5797.35
1063.1	3398.09
1065.99	1166.78
1068.89	617.023
1071.78	2600.95
1074.67	4037.64
1077.57	5114.6
1080.46	5426.49
1083.35	5299.99
1086.24	4357.38
1089.14	1085.13
1092.03	4085.92
1094.92	12676.9
1097.81	24763
1100.71	41561.4
1103.6	65041.2
1106.49	98106.6
1109.38	143262
1112.28	200784
1115.17	270810
1118.06	347200
1120.95	418264
1123.85	470812
1126.74	487788
1129.63	470809
1132.53	437693
1135.42	411404
1138.31	406745
1141.2	423031
1144.1	450678
1146.99	473111
1149.88	466202
1152.78	422363
1155.67	359371
1158.56	304822
1161.45	278869
1164.35	292684
1167.24	359907
1170.13	495888
1173.02	696853
1175.92	941050
1178.81	1.15455e+06
1181.7	1.25567e+06
1184.6	1.19696e+06
1187.49	1.02308e+06
1190.38	810441
1193.27	617678
1196.17	462984
1199.06	341644
1201.95	248229
1204.84	172646
1207.74	114898
1210.63	73373.2
1213.52	42420.1
1216.41	21675.3
1219.31	6345.47
1222.2	1820.03
1225.09	4333
1227.98	2593.47
1230.88	1440.91
1233.77	6173
1236.66	9112.69
1239.56	9841.38
1242.45	7563.09
1245.34	2453.69
1248.23	294.344
1251.13	686.625
1254.02	1738.56
1256.91	4586.72
1259.81	1019.09
