Measurement: Raman, 532 nm, unoriented, Raman Data Processed
Mineral: Szaibelyite
Rruff sample: R070498
Ideal chemistry: MgBO_2_(OH)
Locality: Stinson Beach, Marin County, California, USA
Source: James Shigley
Description: Matted aggregates of white fibrous crystals, associated with magnetite and chromite
Raman shift (cm-1)	intensity
155.941	0
158.833	283.475
161.726	518.264
164.619	404.43
167.512	357.625
170.404	279.352
173.297	22.8516
176.19	144.086
179.082	145.291
181.975	135.67
184.868	242.506
187.761	195.504
190.653	334.826
193.546	195.82
196.439	68.2188
199.331	150.836
202.224	186.723
205.117	276.287
208.009	80.3281
210.902	217.754
213.795	11.3965
216.688	98.7715
219.58	127.477
222.473	105.617
225.366	75.0039
228.258	176.356
231.151	293.328
234.044	143.35
236.936	12.9453
239.829	125.551
242.722	171.232
245.614	211.172
248.507	206.527
251.4	163.035
254.293	189.508
257.185	107.164
260.078	130.045
262.971	129.779
265.863	128.703
268.756	87.875
271.649	93.7461
274.541	165.873
277.434	64.6504
280.327	186.193
283.22	128.498
286.112	139.176
289.005	73.4356
291.898	152.065
294.79	154.824
297.683	53.9707
300.576	7.43359
303.469	43.8086
306.361	97.0312
309.254	10.2969
312.147	138.555
315.039	218.672
317.932	287.053
320.825	308.824
323.717	567.789
326.61	306.695
329.503	183.801
332.396	232.475
335.288	121.916
338.181	195.713
341.074	231.209
343.966	161.424
346.859	70.4434
349.752	156.32
352.644	244.469
355.537	171.924
358.43	242.498
361.322	55.6328
364.215	132.07
367.108	44.7949
370.001	72.7383
372.893	48.4043
375.786	191.572
378.679	156.934
381.572	30.6094
384.464	17.8242
387.357	67.0801
390.25	214.518
393.142	108.607
396.035	35.7695
398.928	132.58
401.82	112.67
404.713	72.8027
407.606	96.1211
410.498	269.529
413.391	107.127
416.284	110.178
419.177	86.6973
422.069	115.543
424.962	247.19
427.855	64.7734
430.747	167.832
433.64	37.0879
436.533	248.262
439.425	348.014
442.318	22.252
445.211	72.1231
448.104	29.9785
450.996	179.584
453.889	317.699
456.782	300.924
459.674	383.963
462.567	178.201
465.46	102.986
468.353	169.711
471.245	141.328
474.138	49.9629
477.031	73.5977
479.923	79.6328
482.816	240.621
485.709	264.832
488.601	313.453
491.494	282.033
494.387	202.961
497.279	187.299
500.172	51.3887
503.065	118.174
505.958	145.244
508.85	129.371
511.743	215.606
514.636	233.793
517.528	409.707
520.421	184.772
523.314	272.496
526.207	279.18
529.099	219.461
531.992	294.353
534.885	530.6
537.777	268.42
540.67	271.19
543.563	388.096
546.455	343.246
549.348	296.176
552.241	182.848
555.134	163.65
558.026	14.5176
560.919	115.939
563.812	84.3398
566.704	226.432
569.597	299.449
572.49	342.789
575.382	243.871
578.275	250.488
581.168	9.35742
584.061	8.86133
586.953	88.4219
589.846	28.5547
592.739	61.793
595.631	135.685
598.524	135.975
601.417	142.613
604.309	174.451
607.202	398.688
610.095	296.211
612.987	210.18
615.88	135.172
618.773	309.606
621.666	161.59
624.558	117.18
627.451	270.441
630.344	304.82
633.236	208.172
636.129	37.3516
639.022	62.2422
641.915	108.238
644.807	177.598
647.7	32.6094
650.593	147.684
653.485	236.09
656.378	185.082
659.271	206.996
662.163	241.723
665.056	121.336
667.949	230.664
670.842	126.375
673.734	165.371
676.627	181.973
679.52	328.172
682.412	360.199
685.305	85.6836
688.198	292.285
691.091	251.769
693.983	266.156
696.876	199.945
699.769	135.902
702.661	270.168
705.554	338.191
708.447	251.953
711.339	162.539
714.232	132.121
717.125	141.988
720.018	69.4258
722.91	37.7344
725.803	14.9023
728.696	248.684
731.588	259.758
734.481	159.871
737.374	62.5273
740.266	131.098
743.159	213.965
746.052	265.012
748.944	420.703
751.837	304.66
754.73	213.434
757.623	240.66
760.515	216.856
763.408	204.648
766.301	45.082
769.193	190.039
772.086	236.387
774.979	224.129
777.871	51.0781
780.764	138.293
783.657	353.328
786.55	301.762
789.442	553.894
792.335	17.6484
795.228	4.84766
798.12	67.5156
801.013	26.8594
803.906	280.074
806.798	123.617
809.691	160.688
812.584	151.398
815.477	41.8086
818.369	107.551
821.262	117.902
824.155	375.914
827.047	426.394
829.94	625.488
832.833	513.539
835.726	427.262
838.618	335.918
841.511	323.148
844.404	337.957
847.296	226.984
850.189	241.09
853.082	148.281
855.975	153.492
858.867	231.695
861.76	122.688
864.653	286.332
867.545	302.699
870.438	181.234
873.331	267.484
876.223	285.008
879.116	400.676
882.009	327.973
884.902	225.266
887.794	354.227
890.687	276.695
893.58	351.172
896.472	153.188
899.365	20.9922
902.258	54.7383
905.15	224.137
908.043	282.91
910.936	111.641
913.828	134.871
916.721	94.8789
919.614	181.84
922.507	69.457
925.399	108.953
928.292	45.418
931.185	128.512
934.077	124.758
936.97	4.63281
939.863	94.2773
942.755	130.719
945.648	113.602
948.541	157.387
951.434	27.4336
954.326	16.8672
957.219	162.469
960.112	140.168
963.004	219.152
965.897	108.523
968.79	302.742
971.683	173.863
974.575	323.582
977.468	139.785
980.361	36.1836
983.253	160.965
986.146	151.566
989.039	351.215
991.931	321.977
994.824	113.352
997.717	59.9414
1000.61	68.1133
1003.5	198.742
1006.39	133.207
1009.29	250.152
1012.18	373.941
1015.07	106.09
1017.97	167.559
1020.86	7.94531
1023.75	42.3906
1026.64	172.266
1029.54	410.629
1032.43	767.398
1035.32	48.2656
1038.21	10.9883
1041.11	65.4531
1044	138.199
1046.89	131.805
1049.79	309.047
1052.68	202.867
1055.57	8.41016
1058.46	111.328
1061.36	216.488
1064.25	368.367
1067.14	389.449
1070.03	406.008
1072.93	322.133
1075.82	120.637
1078.71	188.641
1081.61	21.9297
1084.5	137.582
1087.39	183.035
1090.28	126.184
1093.18	117.566
1096.07	284.828
1098.96	210.383
1101.85	167.246
1104.75	143.535
1107.64	23.2109
1110.53	11.6953
1113.42	283.062
1116.32	281.727
1119.21	264.047
1122.1	140.102
1125	32.8984
1127.89	47.2578
1130.78	96.5234
1133.67	187.273
1136.57	243.797
1139.46	284.371
1142.35	235.938
1145.24	204.394
1148.14	177.082
1151.03	292.293
1153.92	146.309
1156.82	11.7617
1159.71	139.027
1162.6	21.8828
1165.49	25.8047
1168.39	13.8672
1171.28	121.434
1174.17	218.617
1177.06	184.527
1179.96	313.828
1182.85	498.629
1185.74	376.973
1188.63	303.629
1191.53	206.231
1194.42	237.277
1197.31	251.383
1200.21	200.453
1203.1	199.027
1205.99	26.3398
1208.88	141.43
1211.78	17.1719
1214.67	92.6953
1217.56	408.336
1220.45	591.231
1223.35	519.164
1226.24	424.461
1229.13	111.316
1232.03	69.7773
1234.92	134.719
1237.81	73.6719
1240.7	119.371
1243.6	103.082
1246.49	8.31641
1249.38	203.606
1252.28	94.6719
1255.17	115.668
1258.06	17.1094
1260.95	270.891
1263.85	273.555
1266.74	395.09
1269.63	368.484
1272.52	282.191
1275.42	86.0156
1278.31	157.348
1281.2	104.816
1284.09	174.961
1286.99	133.535
1289.88	3.87891
