Measurement: Raman, 780 nm, unoriented, Raman Data Processed
Mineral: Szenicsite
Rruff sample: R100179
Ideal chemistry: Cu^2+^_3_Mo^6+^O_4_(OH)_4_
Locality: Carlota mine, Pinto Creek, Gila, Arizona, USA
Source: Joe Ruiz
Description: Green elongated crystals, associated with blue azurite, pale green thick tabular powellite (R100180) and colorless granular prosopite (R100181).
Raman shift (cm-1)	intensity
90.6055	0
93.9803	0.994643
97.3551	2.22075
100.73	5.30488
104.105	0.292401
107.48	3.63052
110.854	4.20922
114.229	3.84439
117.604	2.70947
120.979	3.05346
124.354	5.40703
127.728	0.17801
131.103	2.09773
134.478	3.66308
137.853	5.32188
141.228	4.43856
144.602	0.651922
147.977	6.71468
151.352	3.68791
154.727	1.83305
158.102	5.12226
161.477	1.09775
164.851	1.40447
168.226	0.058119
171.601	2.78716
174.976	0.394912
178.351	5.34203
181.726	2.37222
185.1	3.31398
188.475	4.48547
191.85	2.59568
195.225	5.60027
198.6	5.20328
201.974	6.84459
205.349	3.94037
208.724	3.8357
212.099	6.54862
215.474	4.0045
218.848	5.07273
222.223	0.885088
225.598	7.50505
228.973	4.19963
232.348	0.857516
235.722	4.38037
239.097	3.52795
242.472	3.45983
245.847	1.82619
249.222	3.43369
252.597	3.81358
255.971	0.152941
259.346	2.56527
262.721	3.53026
266.096	4.35891
269.471	2.09804
272.846	7.73012
276.22	4.49912
279.595	3.12885
282.97	3.15438
286.345	1.63177
289.719	2.05822
293.094	1.13831
296.469	3.3294
299.844	2.05029
303.219	5.80941
306.594	3.92929
309.968	2.20025
313.343	4.97656
316.718	2.3916
320.093	2.42029
323.468	1.13048
326.842	3.18191
330.217	5.67382
333.592	0.908519
336.967	1.80385
340.342	1.04149
343.717	3.48593
347.091	4.45379
350.466	5.14541
353.841	2.30069
357.216	1.32962
360.591	3.67159
363.965	2.84164
367.34	1.82553
370.715	0.94814
374.09	3.48043
377.465	1.88415
380.839	2.74666
384.214	3.66078
387.589	0.035823
390.964	3.97542
394.339	3.79855
397.714	5.58659
401.088	3.82052
404.463	6.91651
407.838	2.38483
411.213	1.87022
414.588	5.09023
417.962	4.19654
421.337	6.24239
424.712	3.29656
428.087	4.83725
431.462	3.56468
434.837	3.23327
438.211	1.9496
441.586	3.87945
444.961	0.624476
448.336	0.338922
451.711	0.407598
455.085	3.92189
458.46	0.109471
461.835	3.4148
465.21	4.70887
468.585	0.148367
471.959	3.01709
475.334	3.36455
478.709	2.6711
482.084	1.38769
485.459	3.87266
488.834	4.00631
492.208	2.70823
495.583	2.28331
498.958	4.19321
502.333	4.77669
505.708	5.83831
509.082	2.82742
512.457	1.0342
515.832	5.1392
519.207	1.76757
522.582	4.10553
525.957	2.0705
529.331	3.81083
532.706	1.2349
536.081	3.25422
539.456	3.83697
542.831	2.23412
546.205	2.85949
549.58	0.963282
552.955	3.43248
556.33	1.86134
559.705	1.06909
563.08	0.565628
566.454	2.82079
569.829	3.52291
573.204	3.56046
576.579	0.352548
579.954	4.86907
583.328	1.04395
586.703	3.64939
590.078	4.27269
593.453	1.50574
596.828	2.52305
600.202	0.975074
603.577	1.22416
606.952	3.76904
610.327	3.89625
613.702	3.97849
617.077	1.33684
620.451	0.880343
623.826	2.68654
627.201	2.53156
630.576	0.709912
633.951	2.88615
637.325	2.2906
640.7	0.385372
644.075	1.899
647.45	1.88351
650.825	2.56947
654.199	2.64573
657.574	0.874738
660.949	0.8053
664.324	3.02099
667.699	3.99978
671.073	3.46892
674.448	0.294017
677.823	0.885454
681.198	2.71424
684.573	2.95131
687.948	2.58128
691.322	0.38933
694.697	3.79374
698.072	0.044083
701.447	2.80373
704.822	3.75752
708.197	4.05256
711.571	2.41326
714.946	1.63476
718.321	1.70741
721.696	3.00847
725.071	2.44865
728.445	3.07666
731.82	3.91875
735.195	0.835564
738.57	3.59827
741.945	2.48303
745.319	2.80368
748.694	5.19887
752.069	3.24546
755.444	2.59147
758.819	0.904035
762.193	3.45937
765.568	2.45511
768.943	5.55742
772.318	2.6012
775.693	2.83078
779.068	2.98844
782.442	2.10663
785.817	0.464817
789.192	1.45075
792.567	2.04108
795.942	5.1501
799.317	3.5395
802.691	5.87873
806.066	3.45931
809.441	3.58058
812.816	2.9715
816.191	5.13494
819.565	2.9891
822.94	5.73644
826.315	3.2998
829.69	5.1738
833.065	0.221534
836.439	2.17698
839.814	1.33906
843.189	0.352332
846.564	2.78934
849.939	6.7497
853.313	1.15386
856.688	2.62457
860.063	7.26621
863.438	4.3441
866.813	2.37838
870.188	2.47322
873.562	2.13556
876.937	2.25954
880.312	5.1962
883.687	13.5882
887.062	13.5255
890.437	17.2227
893.811	18.7546
897.186	19.2362
900.561	10.7771
903.936	5.47742
907.311	1.35093
910.685	3.50354
914.06	4.23193
917.435	2.23738
920.81	4.08505
924.185	3.31368
927.559	3.29801
930.934	3.86951
934.309	1.74101
937.684	2.22404
941.059	2.64398
944.433	3.56695
947.808	1.93142
951.183	3.19288
954.558	0.451508
957.933	0.14096
961.308	0.329042
964.682	1.30627
968.057	3.33742
971.432	2.32665
974.807	1.48338
978.182	1.76318
981.557	2.83582
984.931	2.63529
988.306	3.00702
991.681	4.13215
995.056	0.68159
998.431	3.53992
1001.8	1.2116
1005.18	0.909799
1008.55	2.61498
1011.93	3.23593
1015.3	3.68029
1018.68	2.92323
1022.05	2.03714
1025.43	1.30607
1028.8	0.680174
1032.18	1.31925
1035.55	2.76325
1038.93	2.12066
1042.3	2.97622
1045.68	2.90752
1049.05	1.7945
1052.43	1.88154
1055.8	3.50692
1059.18	0.160358
1062.55	3.21763
1065.93	4.87439
1069.3	3.14469
1072.68	3.16717
1076.05	1.32793
1079.43	2.61674
1082.8	5.07201
1086.18	0.473451
1089.55	1.43265
1092.92	1.43271
1096.3	1.9051
1099.67	4.16956
1103.05	3.81969
1106.42	0.487777
1109.8	4.48133
1113.17	6.53252
1116.55	2.34527
1119.92	2.84512
1123.3	1.24303
1126.67	3.57717
1130.05	1.72218
1133.42	3.24078
1136.8	1.1495
1140.17	3.79988
1143.55	3.51259
1146.92	5.25362
1150.3	2.68066
1153.67	5.2067
1157.05	4.84155
1160.42	2.42287
1163.8	3.24755
1167.17	3.55871
1170.55	3.21475
1173.92	5.85149
1177.3	3.31569
1180.67	2.6378
1184.05	2.27328
1187.42	2.33968
1190.8	4.40426
1194.17	0.87434
1197.55	1.68392
1200.92	0.550729
1204.29	2.14335
1207.67	5.99338
1211.04	3.49635
1214.42	1.3029
1217.79	2.87845
1221.17	2.9762
1224.54	5.00357
1227.92	2.14482
1231.29	0.057596
1234.67	2.7638
1238.04	3.02822
1241.42	3.87631
1244.79	2.24569
1248.17	0.470227
1251.54	4.4512
1254.92	0.449224
1258.29	4.43408
1261.67	5.23185
1265.04	1.65516
1268.42	4.72502
1271.79	3.4592
1275.16	1.37961
1278.54	0.851107
1281.91	0.762599
