Measurement: Raman, 532 nm, unoriented, Raman Data RAW
Mineral: Tadzhikite-(Ce)
Rruff sample: R060641
Ideal chemistry: Ca_4_Ce^3+^_2_Ti^4+^[box](B_4_Si_4_O_22_)(OH)_2_
Locality: Dara-i-Pioz Glacier, Alayskiy (Alai) Range, Tien Shan Mountains, Tajikistan
Source: Michael Scott
Description: Grayish brown colored grains
Raman shift (cm-1)	intensity
142.254	264.017
145.629	269.423
149.003	282.864
152.378	275.106
155.753	291.03
159.128	285.281
162.503	293.636
165.878	291.992
169.252	295.653
172.627	287.152
176.002	301.807
179.377	312.347
182.751	301.677
186.126	312.425
189.501	308.796
192.876	303.425
196.251	297.357
199.626	301.425
203	296.282
206.375	304.383
209.75	312.044
213.125	283.977
216.5	309.758
219.874	314.24
223.249	310.416
226.624	299.315
229.999	317.434
233.374	315.11
236.749	314.375
240.123	310.978
243.498	320.512
246.873	326.069
250.248	326.434
253.623	337.772
256.997	358.854
260.372	351.54
263.747	373.984
267.122	382.914
270.497	402.677
273.872	398.487
277.246	422.68
280.621	443.87
283.996	460.937
287.371	472.743
290.746	498.196
294.121	521.975
297.495	536.813
300.87	539.785
304.245	584.363
307.62	590.42
310.995	611.69
314.369	621.589
317.744	637.991
321.119	653.485
324.494	672.031
327.869	666.752
331.243	651.057
334.618	667.665
337.993	661.454
341.368	640.271
344.743	622.369
348.117	602.716
351.492	561.824
354.867	536.27
358.242	521.188
361.617	489.309
364.991	481.823
368.366	468.664
371.741	471.599
375.116	451.668
378.491	455.986
381.866	453.5
385.24	459.952
388.615	471.997
391.99	465.101
395.365	453
398.74	476.12
402.115	471.693
405.489	478.425
408.864	487.929
412.239	483.287
415.614	490.193
418.989	466.57
422.363	476.147
425.738	476.405
429.113	464.834
432.488	467.156
435.863	460.192
439.237	455.439
442.612	458.052
445.987	469.333
449.362	461.64
452.737	475.678
456.112	476.324
459.486	487.762
462.861	494.516
466.236	500.958
469.611	488.595
472.986	487.332
476.361	513.12
479.735	511.306
483.11	512.474
486.485	519.22
489.86	538.75
493.234	545.55
496.609	571.283
499.984	589.642
503.359	588.178
506.734	603.453
510.109	621.322
513.484	593.111
516.858	598.06
520.233	593.55
523.608	558.665
526.983	535.81
530.357	528.583
533.732	497.674
537.107	485.034
540.482	464.334
543.857	471.185
547.232	461.015
550.606	462.966
553.981	439.806
557.356	458.828
560.731	451.098
564.106	464.155
567.481	464.35
570.855	464.459
574.23	456.632
577.605	465.157
580.98	463.838
584.355	450.344
587.729	453.664
591.104	439.525
594.479	457.531
597.854	445.475
601.229	449.025
604.604	444.955
607.978	452.803
611.353	436.718
614.728	440.864
618.103	434.212
621.477	437.8
624.852	427.351
628.227	418.439
631.602	401.82
634.977	392.59
638.352	390.343
641.726	390.344
645.101	392.302
648.476	389.268
651.851	397.491
655.226	406.896
658.601	409.365
661.975	404.753
665.35	410.625
668.725	421.209
672.1	427.401
675.474	435.357
678.849	435.234
682.224	434.159
685.599	464.289
688.974	449.181
692.349	460.048
695.723	470.298
699.098	462.401
702.473	476.529
705.848	476.738
709.223	463.553
712.597	485.279
715.972	470.615
719.347	480.184
722.722	508.845
726.097	507.499
729.472	506.361
732.846	522.626
736.221	544.8
739.596	530.469
742.971	542.606
746.346	552.196
749.721	557.678
753.095	559.838
756.47	564.078
759.845	552.594
763.22	549.396
766.594	524.49
769.969	550.229
773.344	515.271
776.719	525.502
780.094	514.79
783.469	515.944
786.843	498.127
790.218	501.085
793.593	480.11
796.968	484.775
800.343	482.989
803.718	468.079
807.092	463.737
810.467	459.479
813.842	457.887
817.217	441.025
820.592	423.641
823.966	423.3
827.341	420.078
830.716	394.769
834.091	393.135
837.466	396.128
840.841	396.61
844.215	389.168
847.59	391.626
850.965	385.649
854.34	394.509
857.715	404.325
861.089	403.856
864.464	407.589
867.839	412.279
871.214	419.083
874.589	409.204
877.964	409.878
881.338	409.78
884.713	402.754
888.088	407.747
891.463	399.509
894.838	404.752
898.212	399.108
901.587	397.429
904.962	405.739
908.337	400.063
911.712	392.098
915.086	395.496
918.461	386.209
921.836	392.527
925.211	389.447
928.586	403.056
931.961	403.42
935.335	399.688
938.71	387.609
942.085	412.916
945.46	398.806
948.835	387.106
952.209	393.823
955.584	397.543
958.959	381.243
962.334	386.027
965.709	383.803
969.083	359.751
972.458	366.238
975.833	360.992
979.208	359.483
982.583	358.04
985.958	359.194
989.332	344.94
992.707	323.51
996.082	328.762
999.457	317.452
1002.83	312.226
1006.21	305.092
1009.58	301.57
1012.96	286.262
1016.33	288.065
1019.71	287.7
1023.08	285.628
1026.45	285.224
1029.83	268.088
1033.2	278.56
1036.58	270.832
1039.95	270.631
1043.33	257.589
1046.7	263.257
1050.08	267.862
1053.45	254.812
1056.83	266.253
1060.2	263.582
1063.58	248.03
1066.95	251.288
1070.33	255.226
1073.7	241.339
1077.08	240.923
1080.45	245.553
1083.83	242.352
1087.2	239.241
1090.58	247.346
1093.95	229.962
1097.33	239.773
1100.7	234.403
1104.08	243.448
1107.45	233.457
1110.83	235.803
1114.2	235.97
1117.58	239.458
1120.95	225.92
1124.33	227.338
1127.7	237.179
1131.08	228.03
1134.45	228.371
1137.82	233.023
1141.2	229.851
1144.57	229.735
1147.95	224.992
1151.32	231.178
1154.7	222.188
1158.07	232.337
1161.45	228.324
1164.82	221.337
1168.2	226.064
1171.57	221.974
1174.95	229.824
1178.32	222.285
1181.7	233.036
1185.07	218.019
1188.45	228.196
1191.82	222.343
1195.2	224.778
1198.57	223.624
1201.95	214.049
1205.32	229.416
1208.69	230.018
1212.07	231.698
1215.44	239.92
1218.82	239.259
1222.19	238.429
1225.57	223.536
1228.94	226.989
1232.32	235.321
1235.69	232.076
1239.07	237.833
1242.44	232.082
1245.82	228.695
1249.19	238.128
1252.57	239.666
1255.94	233.074
1259.32	233.582
1262.69	221.016
1266.07	231.236
1269.44	229.09
1272.82	233.059
1276.19	238.859
1279.57	230.915
1282.94	230.521
1286.32	233.388
1289.69	247.241
1293.07	240.045
1296.44	240.324
1299.82	233.673
