Measurement: Raman, 785 nm, unoriented, Raman Data RAW
Mineral: Tadzhikite-(Ce)
Rruff sample: R060641
Ideal chemistry: Ca_4_Ce^3+^_2_Ti^4+^[box](B_4_Si_4_O_22_)(OH)_2_
Locality: Dara-i-Pioz Glacier, Alayskiy (Alai) Range, Tien Shan Mountains, Tajikistan
Source: Michael Scott
Description: Grayish brown colored grains
Raman shift (cm-1)	intensity
100.315	55.981
103.69	46.606
107.064	52.965
110.439	60.387
113.814	65.301
117.189	78.007
120.564	76.602
123.939	105.226
127.313	186.882
130.688	246.009
134.063	270.346
137.438	243.117
140.813	297.751
144.188	407.975
147.562	502.062
150.937	559.423
154.312	546.28
157.687	572.471
161.062	606.339
164.436	662.48
167.811	720.389
171.186	770.845
174.561	769.093
177.936	788.443
181.311	820.212
184.685	848.115
188.06	875.341
191.435	844.07
194.81	866.073
198.185	892.855
201.559	891.806
204.934	892.543
208.309	890.365
211.684	913.113
215.059	912.148
218.434	917.234
221.808	939.96
225.183	939.994
228.558	953.685
231.933	987.824
235.307	1031.51
238.682	1021.39
242.057	1076.24
245.432	1114.5
248.807	1108.09
252.182	1114.76
255.556	1144.03
258.931	1137.63
262.306	1164.15
265.681	1167.81
269.056	1167.4
272.431	1167.19
275.805	1179.98
279.18	1192.35
282.555	1229.57
285.93	1227.42
289.305	1260.08
292.679	1269.41
296.054	1316.45
299.429	1355.52
302.804	1439.67
306.179	1542.1
309.553	1658.55
312.928	1760.8
316.303	1888.85
319.678	2075.9
323.053	2311.89
326.428	2536.63
329.802	2795.57
333.177	3092.11
336.552	3243.76
339.927	3460.87
343.302	3558.81
346.677	3654.03
350.051	3729.28
353.426	3721.14
356.801	3619.58
360.176	3474.68
363.551	3300.43
366.925	3144.94
370.3	2972.64
373.675	2818.78
377.05	2645.32
380.425	2471.31
383.799	2367.89
387.174	2215.08
390.549	2130.81
393.924	2066.81
397.299	1981.39
400.674	1952.3
404.048	1895.57
407.423	1845.67
410.798	1865.61
414.173	1884.37
417.548	1905.37
420.922	1975.28
424.297	2030.4
427.672	2117.07
431.047	2201.04
434.422	2252.08
437.797	2267.12
441.171	2309.09
444.546	2319.57
447.921	2321.03
451.296	2304.33
454.671	2233.61
458.045	2225.99
461.42	2192.13
464.795	2154.72
468.17	2093.93
471.545	2033.87
474.919	1971.53
478.294	1894.05
481.669	1870.47
485.044	1820.41
488.419	1792.93
491.794	1769.35
495.168	1713.29
498.543	1703.75
501.918	1640.43
505.293	1633.95
508.668	1601
512.042	1551.43
515.417	1535.09
518.792	1511.17
522.167	1500.95
525.542	1470.17
528.917	1443.15
532.291	1437.42
535.666	1444.19
539.041	1407.83
542.416	1415.74
545.791	1405.74
549.166	1412.93
552.54	1419.57
555.915	1414.21
559.29	1429.39
562.665	1460.22
566.04	1456.52
569.414	1437.17
572.789	1459.36
576.164	1468.97
579.539	1454.49
582.914	1469.75
586.289	1481.68
589.663	1474.41
593.038	1435.49
596.413	1430.99
599.788	1416.15
603.162	1405.29
606.537	1356.23
609.912	1352.37
613.287	1317.62
616.662	1268.46
620.037	1230.9
623.411	1224.44
626.786	1184.45
630.161	1140.7
633.536	1097.29
636.911	1061.79
640.286	1022.9
643.66	1001.67
647.035	960.797
650.41	949.62
653.785	920.229
657.16	899.406
660.534	878.229
663.909	842.138
667.284	815.296
670.659	825.708
674.034	817.984
677.409	792.38
680.783	777.032
684.158	763.883
687.533	744.367
690.908	733.208
694.283	713.436
697.657	694.417
701.032	672.014
704.407	667.312
707.782	641.157
711.157	630.205
714.531	610.102
717.906	603.439
721.281	594.386
724.656	581.072
728.031	579.225
731.406	547.303
734.78	540.893
738.155	529.233
741.53	526.205
744.905	521.828
748.28	510.673
751.654	528.721
755.029	516.157
758.404	519.095
761.779	509.732
765.154	509.065
768.529	496.834
771.903	472.694
775.278	468.942
778.653	463.878
782.028	462.214
785.403	443.431
788.778	449.148
792.152	427.823
795.527	428.962
798.902	425.142
802.277	402.242
805.652	413.065
809.026	405.823
812.401	411.917
815.776	403.97
819.151	390.74
822.526	373.618
825.901	379.593
829.275	364.391
832.65	372.962
836.025	374.83
839.4	371.899
842.774	355.148
846.149	371.1
849.524	356.131
852.899	368.213
856.274	359.294
859.649	370.681
863.023	359.748
866.398	370.34
869.773	374.572
873.148	382.288
876.523	362.497
879.898	381.389
883.272	374.581
886.647	380.965
890.022	370.884
893.397	367.703
896.771	371.27
900.146	376.185
903.521	380.71
906.896	378.783
910.271	381.458
913.646	379.026
917.02	394.264
920.395	380.427
923.77	384.865
927.145	391.766
930.52	400.904
933.894	411.349
937.269	412.333
940.644	408.329
944.019	430.901
947.394	444.346
950.769	443.07
954.143	443.088
957.518	457.568
960.893	452.157
964.268	459.323
967.643	469.208
971.018	487.049
974.392	488.741
977.767	506.277
981.142	512.694
984.517	508.454
987.892	533.018
991.266	534.046
994.641	562.718
998.016	582.715
1001.39	584.744
1004.77	595.764
1008.14	623.047
1011.51	644.023
1014.89	642.562
1018.26	674.016
1021.64	703.302
1025.02	723.796
1028.39	732.16
1031.76	788.902
1035.14	820.23
1038.51	840.006
1041.89	899.386
1045.26	932.068
1048.64	974.646
1052.01	1029.16
1055.39	1101.8
1058.76	1154.89
1062.14	1195.89
1065.51	1280.79
1068.89	1343.51
1072.26	1455.64
1075.64	1505.74
1079.01	1623.47
1082.39	1708.83
1085.76	1815.42
1089.14	1936.8
1092.51	2062.71
1095.89	2241.77
1099.26	2396.29
1102.63	2556.86
1106.01	2726.3
1109.38	2968.13
1112.76	3250.55
1116.13	3516.37
1119.51	3848.99
1122.88	4230.78
1126.26	4652.87
1129.63	5131.13
1133.01	5689.61
1136.38	6354.63
1139.76	7145.21
1143.13	7826.18
1146.51	8658.82
1149.88	9541.97
1153.26	10312.8
1156.63	11147.6
1160.01	12028.7
1163.38	12699.2
1166.76	13295.2
1170.13	13655.9
1173.51	13907.4
1176.88	13906.6
1180.26	13762.7
1183.63	13525.7
1187.01	13191.2
1190.38	12874.9
1193.76	12448.5
1197.13	12091.4
1200.51	11640.8
1203.88	11104.4
1207.26	10701.7
1210.63	10221
1214	9831.93
1217.38	9397
1220.75	9011.32
1224.13	8614.86
1227.5	8191.89
1230.88	7915.58
1234.25	7651.67
1237.63	7495.33
1241	7342.77
1244.38	7221.79
1247.75	7207.92
1251.13	7246.74
1254.5	7376.81
1257.88	7516
1261.25	7590.41
1264.63	7814.92
1268	7924.2
1271.38	8068.08
