Measurement: Raman, 780 nm, unoriented, Raman Data Processed
Mineral: Talnakhite
Rruff sample: R060389
Ideal chemistry: Cu_9_Fe_8_S_16_
Locality: Oktyabrskiy mine, Talnakh, Noril'sk Region, Siberia, U.S.S.R.
Source: Michael Scott
Description: Bronze metallic massive, associated with cubanite. We can not tell the difference between them by eye.
Measured chemistry: (Cu_8.70_Ni_0.30_)_Î£=9_Fe_9.00_S_16.00_
Raman shift (cm-1)	intensity
151.352	0
154.245	1.84978
157.137	1.12445
160.03	0.35947
162.923	1.16002
165.816	3.3277
168.708	2.76644
171.601	2.36026
174.494	3.10236
177.386	4.58114
180.279	2.75101
183.172	1.86033
186.065	0.651054
188.957	0.932013
191.85	2.84484
194.743	0.076052
197.635	0.775034
200.528	0.816599
203.421	0.641479
206.313	0.097687
209.206	1.41281
212.099	0.429844
214.992	1.05565
217.884	0.932304
220.777	0.036375
223.67	1.03568
226.562	2.66414
229.455	1.68669
232.348	3.00135
235.24	3.44577
238.133	3.43019
241.026	5.10425
243.918	4.33731
246.811	3.73876
249.704	5.93116
252.597	3.81008
255.489	2.7951
258.382	4.19693
261.275	5.38897
264.167	3.29921
267.06	2.46525
269.953	5.2567
272.846	6.46011
275.738	7.48859
278.631	5.42949
281.524	6.40591
284.416	5.18519
287.309	2.10895
290.202	1.29606
293.094	2.38788
295.987	1.24614
298.88	2.10594
301.772	2.55347
304.665	0.66371
307.558	3.66331
310.45	0.964354
313.343	0.375765
316.236	3.40977
319.129	1.43037
322.021	1.72639
324.914	0.034372
327.807	2.13779
330.699	1.5847
333.592	2.53479
336.485	0.034698
339.377	2.28237
342.27	1.45616
345.163	1.50207
348.056	0.267429
350.948	0.449936
353.841	0.385815
356.734	0.122185
359.626	1.00832
362.519	2.75221
365.412	2.6034
368.305	2.45816
371.197	2.7547
374.09	1.70302
376.983	0.815334
379.875	0.095406
382.768	2.99633
385.661	2.19081
388.553	1.88113
391.446	1.78027
394.339	1.70592
397.231	1.20315
400.124	2.64408
403.017	0.732599
405.909	0.858059
408.802	1.78608
411.695	0.652412
414.588	1.56588
417.48	1.81679
420.373	0.40373
423.266	0.916212
426.158	0.601604
429.051	1.49636
431.944	2.40331
434.837	1.49825
437.729	2.5811
440.622	1.42763
443.515	0.015749
446.407	1.61321
449.3	3.12485
452.193	1.6834
455.085	2.463
457.978	2.11738
460.871	0.008371
463.764	2.19245
466.656	2.1132
469.549	2.38069
472.442	0.945542
475.334	2.33581
478.227	2.66087
481.12	1.63412
484.012	1.06154
486.905	1.98358
489.798	3.2191
492.69	1.67557
495.583	2.7925
498.476	1.99916
501.369	1.25174
504.261	1.40398
507.154	0.261878
510.047	1.87766
512.939	1.43328
515.832	0.985148
518.725	1.47792
521.617	0.944788
524.51	0.969417
527.403	1.69678
530.296	2.48701
533.188	1.815
536.081	0.697063
538.974	1.32381
541.866	2.36465
544.759	4.46018
547.652	2.20033
550.544	4.4564
553.437	2.96088
556.33	3.41721
559.222	0.98304
562.115	2.58315
565.008	0.086133
567.901	1.60993
570.793	0.504809
573.686	1.91485
576.579	1.42567
579.471	2.25103
582.364	2.03767
585.257	0.435266
588.149	0.132608
591.042	0.662358
593.935	1.34369
596.828	1.25011
599.72	1.73506
602.613	0.248101
605.506	2.01479
608.398	3.03066
611.291	1.80314
614.184	0.547648
617.077	0.805216
619.969	1.65102
622.862	0.111118
625.755	2.18065
628.647	1.48185
631.54	1.29134
634.433	1.96637
637.325	0.860109
640.218	0.026157
643.111	1.2768
646.004	0.037733
648.896	2.46697
651.789	0.600201
654.682	0.6381
657.574	0.447607
660.467	1.45446
663.36	3.59303
666.252	1.75513
669.145	0.642775
672.038	1.74694
674.931	0.033918
677.823	1.85488
680.716	1.16665
683.609	0.231838
686.501	1.84425
689.394	0.746965
692.287	2.21576
695.179	0.728583
698.072	1.84404
700.965	1.21782
703.857	0.458181
706.75	1.82835
709.643	2.53555
712.535	2.17347
715.428	1.2031
718.321	1.48
721.214	2.26144
724.106	1.32112
726.999	0.251251
729.892	1.04181
732.784	2.70591
735.677	1.2855
738.57	0.173265
741.462	0.82444
744.355	1.32762
747.248	3.02192
750.141	0.476028
753.033	2.37539
755.926	0.24202
758.819	0.589031
761.711	0.43602
764.604	1.07971
767.497	1.84214
770.389	1.81936
773.282	0.357
776.175	0.787188
779.068	1.5397
781.96	0.997604
784.853	1.68451
787.746	2.33539
790.638	2.18291
793.531	1.00398
796.424	1.46218
799.317	1.19858
802.209	1.4561
805.102	2.06328
807.995	3.21024
810.887	2.42191
813.78	2.19068
816.673	2.39032
819.565	4.62265
822.458	0.691557
825.351	2.36124
828.244	0.135632
831.136	0.888811
834.029	0.628017
836.922	1.99089
839.814	1.57337
842.707	0.066786
845.6	2.83835
848.492	2.94704
851.385	3.30572
854.278	3.90083
857.17	1.53649
860.063	2.97333
862.956	1.64199
865.849	3.99941
868.741	1.50347
871.634	2.69298
874.527	2.43065
877.419	3.67624
880.312	1.31024
883.205	1.79251
886.097	1.53051
888.99	1.85088
891.883	0.690008
894.775	2.33643
897.668	1.82122
900.561	1.36197
903.454	0.695202
906.346	1.49307
909.239	1.24079
912.132	1.50592
915.024	0.906968
917.917	0.603807
920.81	0.325188
923.702	0.394113
926.595	1.30634
929.488	2.56731
932.381	0.866297
935.273	3.24196
938.166	1.98619
941.059	1.6894
943.951	1.35759
946.844	0.325206
949.737	2.93794
952.63	0.631833
955.522	0.882024
958.415	0.01678
961.308	1.33719
964.2	0.791427
967.093	1.04287
969.986	0.851904
972.878	2.31233
975.771	1.01263
978.664	3.14841
981.557	1.4245
984.449	0.512341
987.342	1.29707
990.235	0.926852
993.127	1.91108
996.02	0.502022
998.913	1.83314
1001.8	0.988354
1004.7	1.67439
1007.59	0.321795
1010.48	2.07815
1013.38	2.45846
1016.27	1.21818
1019.16	0.325129
1022.05	1.20239
1024.95	0.062076
1027.84	1.22935
1030.73	2.79653
1033.62	0.024541
1036.52	2.64886
1039.41	2.61695
1042.3	2.91358
1045.2	1.94979
1048.09	2.94267
1050.98	2.10995
1053.87	1.93763
1056.77	2.03234
1059.66	1.2862
1062.55	0.852288
1065.44	1.68762
1068.34	2.45842
1071.23	1.89067
1074.12	1.6432
1077.02	0.150187
1079.91	0.235884
1082.8	2.76273
1085.69	1.65033
1088.59	1.61667
1091.48	1.92518
1094.37	0.476488
1097.26	2.54504
1100.16	1.3618
1103.05	1.52664
1105.94	0.495048
1108.84	2.45601
1111.73	2.9753
1114.62	0.750528
1117.51	0.544253
1120.41	0.937475
1123.3	2.26424
1126.19	0.580128
1129.08	2.82969
1131.98	1.74745
1134.87	2.81927
1137.76	2.1347
1140.65	0.030264
1143.55	0.10766
1146.44	2.30442
1149.33	1.40328
1152.23	0.353857
1155.12	2.94002
1158.01	2.06774
1160.9	2.68987
1163.8	2.81703
1166.69	1.56662
1169.58	0.760264
1172.47	0.569528
1175.37	2.20133
1178.26	2.2013
1181.15	0.557596
1184.05	0.377287
1186.94	0.451694
1189.83	1.80887
1192.72	2.39948
1195.62	3.26417
1198.51	3.60487
1201.4	2.36225
1204.29	2.66967
1207.19	4.21673
1210.08	2.75815
1212.97	4.36796
1215.87	3.86243
1218.76	3.10697
1221.65	2.23747
1224.54	3.16991
1227.44	3.24581
1230.33	3.13876
1233.22	3.16923
1236.11	1.94921
1239.01	4.49017
1241.9	2.82872
1244.79	4.23721
1247.68	3.25436
1250.58	2.74526
1253.47	4.08352
1256.36	3.70907
1259.26	1.87916
1262.15	5.11055
1265.04	6.30615
1267.93	2.87373
1270.83	1.90266
1273.72	4.47396
1276.61	2.71531
1279.5	1.96415
1282.4	0.34004
