Measurement: Raman, 532 nm, unoriented, Raman Data Processed
Mineral: Talnakhite
Rruff sample: R060389
Ideal chemistry: Cu_9_Fe_8_S_16_
Locality: Oktyabrskiy mine, Talnakh, Noril'sk Region, Siberia, U.S.S.R.
Source: Michael Scott
Description: Bronze metallic massive, associated with cubanite. We can not tell the difference between them by eye.
Measured chemistry: (Cu_8.70_Ni_0.30_)_Î£=9_Fe_9.00_S_16.00_
Raman shift (cm-1)	intensity
181.673	0
184.566	1.17616
187.459	2.20256
190.351	1.53308
193.244	0.948799
196.137	2.94737
199.029	0.679829
201.922	0.278626
204.815	3.64883
207.708	1.34844
210.6	1.31556
213.493	0.167865
216.386	0.924973
219.278	1.43781
222.171	0.434764
225.064	1.02267
227.956	0.704249
230.849	0.872716
233.742	0.612547
236.635	0.345668
239.527	0.387763
242.42	0.014592
245.313	0.867153
248.205	0.764901
251.098	0.058735
253.991	0.859242
256.884	0.462141
259.776	3.18162
262.669	1.23139
265.562	2.36347
268.454	2.10646
271.347	3.57766
274.24	3.61645
277.132	2.50226
280.025	2.56814
282.918	1.54748
285.81	0.912788
288.703	1.39292
291.596	1.49336
294.489	0.033994
297.381	1.46181
300.274	2.73802
303.167	1.89805
306.059	1.26729
308.952	1.9149
311.845	0.788449
314.738	0.835668
317.63	1.45529
320.523	1.90571
323.416	0.94552
326.308	1.56489
329.201	2.79515
332.094	3.12437
334.986	3.82406
337.879	3.27253
340.772	4.70088
343.665	4.29012
346.557	3.58096
349.45	4.04422
352.343	2.93452
355.235	1.86275
358.128	3.39225
361.021	1.46383
363.913	1.06676
366.806	1.95288
369.699	2.50987
372.592	1.49585
375.484	1.31281
378.377	0.564844
381.27	0.206995
384.162	0.01832
387.055	0.296466
389.948	1.01047
392.841	0.334496
395.733	0.452653
398.626	0.277038
401.519	0.288856
404.411	1.22577
407.304	0.96263
410.197	0.270309
413.089	1.0471
415.982	1.43355
418.875	0.816369
421.767	1.58346
424.66	0.592717
427.553	1.82942
430.446	1.3557
433.338	1.68847
436.231	1.47706
439.124	2.7432
442.017	1.10616
444.909	1.10346
447.802	1.51692
450.695	1.67547
453.587	1.13874
456.48	1.46939
459.373	1.96461
462.265	1.20024
465.158	1.47751
468.051	1.33493
470.943	1.09197
473.836	0.324312
476.729	1.5332
479.622	1.59583
482.514	1.75554
485.407	1.44594
488.3	1.39987
491.192	2.24404
494.085	1.31665
496.978	1.52929
499.87	1.47795
502.763	0.61252
505.656	1.31167
508.549	0.08015
511.441	1.32876
514.334	1.71239
517.227	1.51086
520.119	1.15912
523.012	0.308921
525.905	0.517363
528.798	1.5371
531.69	1.30789
534.583	1.77901
537.476	1.01433
540.368	0.802033
543.261	1.25838
546.154	2.08697
549.047	0.34075
551.939	1.08358
554.832	0.664876
557.725	1.97649
560.617	0.705061
563.51	1.68693
566.403	0.323955
569.295	0.834417
572.188	1.01209
575.081	1.75745
577.973	0.361803
580.866	2.19252
583.759	1.14817
586.652	1.13106
589.544	0.837791
592.437	2.25497
595.33	1.59127
598.222	0.552462
601.115	1.01147
604.008	0.063486
606.901	0.806623
609.793	0.467017
612.686	0.637896
615.579	0.206834
618.471	0.688744
621.364	0.675952
624.257	1.16508
627.149	2.22064
630.042	1.66196
632.935	0.798286
635.828	0.942315
638.72	0.348495
641.613	1.26645
644.506	0.535876
647.398	0.30309
650.291	2.25248
653.184	0.890661
656.077	1.2819
658.969	0.820557
661.862	1.30048
664.755	1.6334
667.647	2.67433
670.54	1.39087
673.433	0.820964
676.325	1.4565
679.218	0.523872
682.111	0.857599
685.004	1.09114
687.896	0.173729
690.789	1.45486
693.682	0.266624
696.574	0.077838
699.467	0.527728
702.36	0.173099
705.253	0.083628
708.145	0.414636
711.038	0.981477
713.931	0.472325
716.823	1.1572
719.716	0.792154
722.609	1.18552
725.501	1.3822
728.394	1.10372
731.287	0.281794
734.179	0.873923
737.072	2.40446
739.965	1.44878
742.858	0.199971
745.75	1.17803
748.643	1.31069
751.536	1.7287
754.428	0.344061
757.321	1.5383
760.214	0.093969
763.107	1.31304
765.999	0.044125
768.892	0.237911
771.785	0.835869
774.677	1.82692
777.57	1.00564
780.463	1.09359
783.356	2.06862
786.248	0.926491
789.141	1.32357
792.034	0.796881
794.926	0.345688
797.819	0.817668
800.712	0.525568
803.604	0.856446
806.497	1.59763
809.39	1.07316
812.283	1.17701
815.175	1.80692
818.068	1.44383
820.961	1.04506
823.853	0.311492
826.746	2.21666
829.639	2.15276
832.531	1.28336
835.424	1.22454
838.317	0.354919
841.21	1.4293
844.102	0.875085
846.995	0.887384
849.888	0.431679
852.78	1.53544
855.673	1.8556
858.566	1.84127
861.458	2.04203
864.351	0.914212
867.244	1.64111
870.136	0.597687
873.029	2.29022
875.922	0.393149
878.815	1.54263
881.707	1.24038
884.6	1.88215
887.493	0.554834
890.385	1.55
893.278	1.12698
896.171	1.19735
899.064	0.443568
901.956	1.55418
904.849	1.21362
907.742	1.2933
910.634	0.806123
913.527	0.53686
916.42	0.675452
919.312	1.39098
922.205	1.38648
925.098	0.632552
927.991	0.111346
930.883	0.153466
933.776	1.05248
936.669	0.02686
939.562	0.286734
942.454	1.89935
945.347	2.17908
948.24	1.48432
951.132	0.192078
954.025	0.868931
956.918	0.279252
959.81	2.55119
962.703	1.07315
965.596	1.39143
968.489	1.28408
971.381	1.20215
974.274	1.76879
977.167	1.4469
980.059	0.418965
982.952	1.53892
985.845	1.32241
988.737	1.64483
991.63	0.621634
994.523	1.26234
997.415	1.17205
1000.31	0.9086
1003.2	1.12179
1006.09	1.1836
1008.99	1.42066
1011.88	0.825298
1014.77	1.25348
1017.66	0.388614
1020.56	1.84272
1023.45	1.52422
1026.34	0.994156
1029.23	0.037358
1032.13	1.22965
1035.02	0.111139
1037.91	1.10657
1040.81	2.02419
1043.7	0.222036
1046.59	2.06051
1049.48	1.74693
1052.38	1.28367
1055.27	1.81446
1058.16	1.73874
1061.06	2.48469
1063.95	1.77032
1066.84	1.80096
1069.73	1.09445
1072.63	1.16387
1075.52	1.24221
1078.41	1.22212
1081.3	1.31885
1084.2	2.25467
1087.09	1.30612
1089.98	1.6213
1092.88	0.867888
1095.77	1.24217
1098.66	0.66758
1101.55	1.05241
1104.45	1.45057
1107.34	0.551934
1110.23	0.684379
1113.12	1.18915
1116.02	0.804463
1118.91	0.480985
1121.8	2.50384
1124.69	1.92556
1127.59	0.454879
1130.48	0.551716
1133.37	0.419946
1136.27	1.84333
1139.16	0.94955
1142.05	2.43825
1144.94	1.26324
1147.84	1.32411
1150.73	1.70464
1153.62	0.01111
1156.51	0.158565
1159.41	1.34888
1162.3	0.02395
1165.19	0.471734
1168.09	0.477778
1170.98	0.785789
1173.87	0.727706
1176.76	1.73447
1179.66	0.912433
1182.55	0.098612
1185.44	1.6332
1188.33	0.595554
1191.23	0.547804
1194.12	0.596543
1197.01	1.29044
1199.9	0.430163
1202.8	0.219704
1205.69	1.34437
1208.58	0.951892
1211.48	0.782096
1214.37	0.797916
1217.26	0.610127
1220.15	0.475769
1223.05	1.46109
1225.94	0.998444
1228.83	1.72573
1231.72	1.32214
1234.62	0.869749
1237.51	0.497745
1240.4	0.729973
1243.3	1.55354
1246.19	0.596048
1249.08	1.07146
1251.97	0.049769
1254.87	1.52709
1257.76	0.431422
1260.65	1.68178
1263.54	1.19356
1266.44	0.547856
1269.33	1.31511
1272.22	0.947468
1275.12	1.32545
1278.01	1.39707
1280.9	0.660243
1283.79	1.5406
1286.69	2.20606
1289.58	1.61495
1292.47	1.42937
1295.36	0.845374
1298.26	1.5214
1301.15	0.020026
