Measurement: Raman, 532 nm, unoriented, Raman Data Processed
Mineral: Taneyamalite
Rruff sample: R070705
Ideal chemistry: (Na,Ca)Mn^2+^_12_(Si,Al)_12_(O,OH)_44_
Locality: Taneyama mine, Kumamoto Prefecture, Kyushu Island, Japan
Source: Michael Scott
Description: Contorted mats of black fibers
Raman shift (cm-1)	intensity
143.185	0
146.077	62.5776
148.97	115.148
151.863	68.9612
154.756	70.2942
157.648	87.1685
160.541	31.4265
163.434	57.2959
166.326	17.5613
169.219	58.9758
172.112	65.4487
175.005	95.7183
177.897	65.0913
180.79	36.8984
183.683	94.5938
186.575	32.0264
189.468	36.0496
192.361	71.3581
195.253	117.719
198.146	9.77002
201.039	24.6186
203.931	60.6709
206.824	59.8721
209.717	90.5225
212.61	25.602
215.502	15.8821
218.395	59.0881
221.288	73.2017
224.18	100.407
227.073	27.6421
229.966	83.8284
232.858	30.1526
235.751	91.116
238.644	115.196
241.537	11.3413
244.429	74.991
247.322	82.1938
250.215	81.7058
253.107	5.87427
256	73.7092
258.893	87.1074
261.786	105.457
264.678	75.9619
267.571	36.8672
270.464	58.5237
273.356	93.1333
276.249	26.9546
279.142	8.71411
282.034	15.3286
284.927	2.33545
287.82	4.80347
290.712	52.5442
293.605	55.2869
296.498	22.3525
299.39	77.1204
302.283	46.6868
305.176	79.603
308.069	55.2356
310.961	25.7717
313.854	42.5591
316.747	22.6245
319.639	23.3223
322.532	46.3057
325.425	73.6477
328.317	7.84424
331.21	98.4316
334.103	55.9541
336.996	81.3899
339.888	51.7788
342.781	75.5115
345.674	54.3142
348.566	81.3748
351.459	112.141
354.352	73.4028
357.245	112.081
360.137	95.0947
363.03	54.147
365.923	110.886
368.815	49.1936
371.708	112.839
374.601	78.8731
377.493	71.179
380.386	80.144
383.279	42.5513
386.171	53.2212
389.064	48.3149
391.957	25.2107
394.85	59.3513
397.742	2.04932
400.635	45.457
403.528	56.6375
406.42	63.3945
409.313	18.7288
412.206	99.0227
415.099	69.1196
417.991	24.9634
420.884	80.4966
423.777	50.6606
426.669	46.1138
429.562	47.6714
432.455	75.7856
435.347	77.7891
438.24	19.8154
441.133	72.5125
444.026	102.743
446.918	63.8645
449.811	24.2825
452.704	24.7305
455.596	54.0532
458.489	29.4607
461.382	3.77246
464.274	28.6401
467.167	13.8865
470.06	13.2698
472.952	9.76367
475.845	3.60986
478.738	12.4861
481.631	0.6875
484.523	18.8662
487.416	41.6773
490.309	51.9944
493.201	54.3516
496.094	30.3259
498.987	10.4876
501.88	49.1333
504.772	44.1123
507.665	42.6545
510.558	36.8782
513.45	68.8333
516.343	66.5752
519.236	3.71167
522.128	34.4853
525.021	20.7566
527.914	34.5312
530.807	33.9812
533.699	16.7632
536.592	0.00708
539.485	3.27734
542.377	44.5957
545.27	39.9045
548.163	85.5134
551.055	27.7105
553.948	2.78589
556.841	6.98389
559.734	0.103271
562.626	65.1499
565.519	34.1501
568.412	54.3608
571.304	46.9258
574.197	31.2866
577.09	71.4426
579.982	73.0493
582.875	71.7595
585.768	37.1162
588.66	72.1934
591.553	87.1899
594.446	72.0876
597.339	89.6389
600.231	98.8101
603.124	51.5491
606.017	94.146
608.909	55.9678
611.802	47.9861
614.695	116.924
617.587	151.024
620.48	85.3982
623.373	82.4846
626.266	118.638
629.158	54.7454
632.051	86.1934
634.944	64.2141
637.836	60.7727
640.729	90.3887
643.622	65.1704
646.514	41.6008
649.407	52.6697
652.3	75.4622
655.193	62.6997
658.085	102.038
660.978	84.666
663.871	138.516
666.763	102.788
669.656	109.697
672.549	112.194
675.441	83.1323
678.334	56.0696
681.227	17.1033
684.12	5.59253
687.012	4.79394
689.905	7.20825
692.798	19.1365
695.69	16.9875
698.583	7.53906
701.476	18.9934
704.368	14.6858
707.261	39.2761
710.154	66.2817
713.047	61.5972
715.939	0.422363
718.832	65.3982
721.725	101.149
724.617	50.803
727.51	62.2793
730.403	53.8633
733.295	72.833
736.188	64.9788
739.081	59.2197
741.973	48.0051
744.866	57.7747
747.759	17.1367
750.652	30.0615
753.544	54.4485
756.437	1.79004
759.33	62.0918
762.222	0.932617
765.115	1.81372
768.008	53.1968
770.9	9.76294
773.793	24.0869
776.686	39.7854
779.579	46.8694
782.471	45.9275
785.364	32.6265
788.257	33.7012
791.149	37.2561
794.042	50.2854
796.935	67.0312
799.827	3.58179
802.72	58.3027
805.613	26.2688
808.506	50.2568
811.398	35.8154
814.291	12.7688
817.184	13.8957
820.076	6.14038
822.969	1.53882
825.862	44.7573
828.755	37.9453
831.647	56.8362
834.54	36.3357
837.433	52.251
840.325	10.7207
843.218	23.335
846.111	16.5535
849.003	3.22046
851.896	35.2217
854.789	68.7947
857.682	7.58789
860.574	25.2891
863.467	10.5498
866.36	18.2161
869.252	4.95874
872.145	23.6433
875.038	39.9839
877.93	60.061
880.823	28.1355
883.716	14.2031
886.609	68.9888
889.501	41.4729
892.394	26.0774
895.287	15.1877
898.179	51.523
901.072	20.876
903.965	43.1172
906.857	55.4885
909.75	62.5361
912.643	53.8032
915.535	25.9477
918.428	19.0493
921.321	81.6946
924.214	57.032
927.106	62.3391
929.999	66.4497
932.892	29.0039
935.784	4.82544
938.677	50.2378
941.57	16.9963
944.462	6.98901
947.355	14.6062
950.248	17.8355
953.141	14.5479
956.033	47.2837
958.926	41.1746
961.819	62.8921
964.711	20.8709
967.604	31.5593
970.497	33.8411
973.389	45.0855
976.282	65.2224
979.175	76.3264
982.068	51.356
984.96	37.9111
987.853	68.2097
990.746	46.363
993.638	68.3545
996.531	70.8623
999.424	48.051
1002.32	76.6728
1005.21	96.1025
1008.1	84.9802
1011	47.6316
1013.89	56.1201
1016.78	31.3281
1019.67	34.6819
1022.57	20.9685
1025.46	36.428
1028.35	15.1753
1031.24	40.4683
1034.14	52.7659
1037.03	30.0998
1039.92	63.7434
1042.81	24.6133
1045.71	41.7471
1048.6	5.34521
1051.49	21.6616
1054.38	21.9409
1057.28	80.9126
1060.17	40.5107
1063.06	33.5532
1065.96	26.6541
1068.85	9.75415
1071.74	26.4617
1074.63	32.8425
1077.53	54.4145
1080.42	46.0938
1083.31	31.8015
1086.2	3.71265
1089.1	17.4509
1091.99	19.218
1094.88	21.2622
1097.78	60.8262
1100.67	25.9446
1103.56	40.6223
1106.45	50.0085
1109.35	71.5752
1112.24	28.8984
1115.13	37.6123
1118.02	54.7517
1120.92	39.9807
1123.81	38.0525
1126.7	5.99731
1129.6	55.7188
1132.49	37.9219
1135.38	82.7273
1138.27	25.8625
1141.17	34.4846
1144.06	20.7136
1146.95	35.0437
1149.84	76.0579
1152.74	41.8323
1155.63	20.5349
1158.52	21.832
1161.41	0.663086
1164.31	36.0205
1167.2	51.7549
1170.09	5.85986
1172.99	21.6387
1175.88	9.94995
1178.77	62.6946
1181.66	1.32471
1184.56	43.9663
1187.45	29.575
1190.34	23.824
1193.23	51.5271
1196.13	40.8472
1199.02	51.2222
1201.91	15.9646
1204.81	11.4949
1207.7	54.9531
1210.59	67.4067
1213.48	12.1003
1216.38	99.3762
1219.27	32.7913
1222.16	32.6279
1225.05	60.0447
1227.95	1.15308
1230.84	51.1397
1233.73	32.0862
1236.62	7.53857
1239.52	49.4199
1242.41	28.8069
1245.3	103.373
1248.2	24.5364
1251.09	32.5344
1253.98	59.1387
1256.87	6.49243
1259.77	35.1726
1262.66	56.1977
1265.55	3.35718
1268.44	29.3384
1271.34	13.904
1274.23	47.4829
1277.12	27.228
1280.02	62.4941
1282.91	87.6973
1285.8	56.772
1288.69	101.59
1291.59	87.8731
1294.48	63.105
1297.37	2.77759
