Measurement: Raman, 780 nm, unoriented, Raman Data Processed
Mineral: Taneyamalite
Rruff sample: R070705
Ideal chemistry: (Na,Ca)Mn^2+^_12_(Si,Al)_12_(O,OH)_44_
Locality: Taneyama mine, Kumamoto Prefecture, Kyushu Island, Japan
Source: Michael Scott
Description: Contorted mats of black fibers
Raman shift (cm-1)	intensity
125.754	0
129.128	35.2988
132.503	132.752
135.878	96.5606
139.253	119.295
142.628	100.693
146.002	134.394
149.377	162.887
152.752	177.516
156.127	148.916
159.502	68.666
162.876	278.935
166.251	139.793
169.626	209.857
173.001	312.055
176.376	161.471
179.751	249.648
183.125	260.898
186.5	161.44
189.875	214.305
193.25	323.652
196.625	117.461
200	251.91
203.374	138.08
206.749	252.93
210.124	119.084
213.499	340.185
216.874	334.617
220.248	221.158
223.623	123.887
226.998	55.9199
230.373	106.574
233.748	80.0606
237.123	7.69727
240.497	31.5176
243.872	241.356
247.247	176.234
250.622	326.389
253.997	143.824
257.371	264.672
260.746	164.606
264.121	90.1973
267.496	191.014
270.871	87.4141
274.245	112.772
277.62	120.717
280.995	118.311
284.37	149.621
287.745	116.769
291.12	174.842
294.494	141.65
297.869	110.986
301.244	143.338
304.619	70.0801
307.994	97.2109
311.368	46.5117
314.743	98.3594
318.118	67.6504
321.493	2.5332
324.868	101.824
328.243	20.4121
331.617	79.0859
334.992	65.4707
338.367	44.3203
341.742	26.8125
345.117	77.6113
348.491	156.973
351.866	50.2324
355.241	69.5723
358.616	51.0098
361.991	166.43
365.366	65.4473
368.74	53.3281
372.115	172.148
375.49	271.467
378.865	253.584
382.24	32.9375
385.615	115.576
388.989	132.123
392.364	79.7148
395.739	260.389
399.114	266.408
402.489	174.834
405.863	167.941
409.238	241.076
412.613	292.539
415.988	416.123
419.363	232.871
422.738	230.312
426.112	101.178
429.487	235.602
432.862	185.316
436.237	130.432
439.612	165.435
442.986	118.102
446.361	111.008
449.736	13.6348
453.111	19.8438
456.486	63.2617
459.861	18.9766
463.235	43.334
466.61	42.4629
469.985	64.5
473.36	137.422
476.735	58.2734
480.109	119.127
483.484	139.795
486.859	208.016
490.234	247.795
493.609	166.83
496.983	158.703
500.358	112.793
503.733	103.924
507.108	80.9062
510.483	175.043
513.858	221.834
517.232	211.812
520.607	249.414
523.982	138.684
527.357	199.242
530.732	138.078
534.106	118.277
537.481	19.3828
540.856	76.334
544.231	32.6719
547.606	19.1836
550.981	32.25
554.355	74.916
557.73	73.3769
561.105	88.7305
564.48	75.168
567.855	178.785
571.23	164.094
574.604	48.4043
577.979	155.156
581.354	222.924
584.729	393.975
588.104	220.264
591.479	219.756
594.853	346.877
598.228	400.514
601.603	374.359
604.978	276.81
608.352	350.32
611.727	391.961
615.102	347.775
618.477	364.795
621.852	436.293
625.227	297.805
628.601	376.375
631.976	394.809
635.351	426.199
638.726	311.449
642.101	357.606
645.476	365.443
648.85	405.932
652.225	362.018
655.6	303.853
658.975	429.166
662.35	418.816
665.724	401.086
669.099	470.065
672.474	370.582
675.849	252.332
679.224	244.853
682.598	100.969
685.973	56.0527
689.348	66.7266
692.723	54.9824
696.098	58.6074
699.473	8.39258
702.847	10.0586
706.222	104.025
709.597	119.529
712.972	176.393
716.347	173.998
719.721	256.68
723.096	176.67
726.471	179.853
729.846	113.287
733.221	287.205
736.596	196.609
739.971	226.658
743.345	196.852
746.72	179.289
750.095	103.596
753.47	152.527
756.845	94.0391
760.219	144.25
763.594	48.5879
766.969	49.1348
770.344	164.438
773.719	60.8691
777.093	54.0957
780.468	39.334
783.843	142.383
787.218	148.973
790.593	159.463
793.967	28.7969
797.342	61.8301
800.717	11.002
804.092	3.91211
807.467	47.4141
810.842	204.951
814.216	103.383
817.591	97.9941
820.966	138.982
824.341	8.66211
827.716	31.7656
831.091	99.2988
834.465	129.756
837.84	117.961
841.215	244.537
844.59	13.9902
847.965	163.342
851.339	124.371
854.714	194.307
858.089	136.738
861.464	103.303
864.839	134.652
868.214	123.625
871.588	179.586
874.963	143.072
878.338	174.244
881.713	113.656
885.088	90.5996
888.462	16.7949
891.837	55.1953
895.212	210.572
898.587	114.066
901.962	46.4902
905.337	60.2656
908.711	53.9023
912.086	148.074
915.461	231.637
918.836	237.914
922.211	214.266
925.585	130.039
928.96	144.217
932.335	69.375
935.71	223.35
939.085	332.137
942.46	118.799
945.834	215.883
949.209	246.92
952.584	112.117
955.959	189.248
959.334	271.68
962.708	394.086
966.083	173.373
969.458	115.107
972.833	76.6426
976.208	186.232
979.582	80.5293
982.957	112.512
986.332	103.082
989.707	94.5254
993.082	39.4922
996.457	30.4805
999.831	177.973
1003.21	163.773
1006.58	67.2188
1009.96	161.516
1013.33	201.986
1016.71	43.7402
1020.08	162.207
1023.46	207.81
1026.83	208.256
1030.2	147.055
1033.58	91.4394
1036.95	309.772
1040.33	183.25
1043.7	135.633
1047.08	102.195
1050.45	186.279
1053.83	81.0644
1057.2	106.199
1060.58	271.408
1063.95	210.918
1067.33	231.106
1070.7	133.777
1074.08	163.082
1077.45	132.217
1080.83	151.846
1084.2	148.432
1087.58	87.9356
1090.95	53.9004
1094.33	166.289
1097.7	23.8555
1101.08	138.375
1104.45	58.5156
1107.83	115.943
1111.2	87.791
1114.58	35.4023
1117.95	55.0312
1121.33	74.8438
1124.7	61.0137
1128.08	46.4629
1131.45	152.43
1134.82	135.734
1138.2	14.6641
1141.57	106.273
1144.95	130.949
1148.32	209.445
1151.7	88.8477
1155.07	149.607
1158.45	50.8027
1161.82	227.08
1165.2	167.93
1168.57	190.225
1171.95	247.777
1175.32	266.647
1178.7	260.297
1182.07	224.096
1185.45	310.238
1188.82	317.147
1192.2	330.935
1195.57	236.488
1198.95	240.633
1202.32	259.693
1205.69	134.592
1209.07	231.883
1212.44	162.031
1215.82	193.131
1219.19	34.1875
1222.57	194.81
1225.94	29.498
1229.32	89.6719
1232.69	96.6074
1236.07	179.764
1239.44	78.3418
1242.82	120.373
1246.19	96.8535
1249.57	32
1252.94	11.5859
1256.32	107.072
1259.69	126.482
1263.07	145.107
1266.44	226.018
1269.82	32.9473
1273.19	73.7461
1276.57	94.6367
1279.94	8.60547
1283.32	115.074
1286.69	65.4375
