Measurement: Raman, 780 nm, unoriented, Raman Data Processed
Mineral: Teineite
Rruff sample: R100206
Ideal chemistry: Cu^2+^Te^4+^O_3_2H_2_O
Locality: Cole shaft, Bisbee, Cochise County, Arizona, USA
Source: Rob Lavinsky/Evan Jones
Description: Blue prismatic, associated with graemite, R100207, and cuprite
Raman shift (cm-1)	intensity
176.904	0
179.797	4.10527
182.69	5.38459
185.582	2.32739
188.475	0.271173
191.368	4.57612
194.261	7.44656
197.153	1.47397
200.046	2.9547
202.939	5.50407
205.831	0.222116
208.724	1.4174
211.617	6.03545
214.509	8.51713
217.402	13.2909
220.295	12.7935
223.188	10.1249
226.08	10.1944
228.973	10.6495
231.866	7.99426
234.758	3.96851
237.651	2.85101
240.544	4.12213
243.436	2.06379
246.329	7.72403
249.222	4.15124
252.114	7.13321
255.007	2.63159
257.9	4.67143
260.793	2.93372
263.685	5.90635
266.578	6.24245
269.471	6.32351
272.363	4.02002
275.256	3.28854
278.149	6.84197
281.041	3.78399
283.934	3.49921
286.827	0.366867
289.719	4.45176
292.612	4.92354
295.505	5.21746
298.398	3.2744
301.29	12.2032
304.183	8.10671
307.076	9.44569
309.968	2.38266
312.861	4.84772
315.754	9.08971
318.647	6.04979
321.539	0.533324
324.432	12.4872
327.325	1.98455
330.217	4.40832
333.11	13.7434
336.003	10.6978
338.895	4.41377
341.788	10.3938
344.681	5.02419
347.574	9.01078
350.466	2.29483
353.359	6.01579
356.252	0.578885
359.144	0.509679
362.037	3.10583
364.93	5.78169
367.822	0.810059
370.715	3.59584
373.608	5.82815
376.5	3.47437
379.393	5.16826
382.286	1.8043
385.179	9.21423
388.071	3.31119
390.964	4.8687
393.857	3.1984
396.749	6.03612
399.642	4.51847
402.535	3.83994
405.427	9.77715
408.32	3.84339
411.213	3.90266
414.106	7.29392
416.998	2.14757
419.891	8.072
422.784	4.00599
425.676	4.9024
428.569	7.9149
431.462	3.33196
434.354	1.39468
437.247	2.42737
440.14	3.15945
443.033	3.04802
445.925	3.62477
448.818	2.08761
451.711	1.60158
454.603	1.01118
457.496	0.239749
460.389	4.84414
463.281	4.03498
466.174	5.71851
469.067	1.57088
471.959	7.3704
474.852	4.38901
477.745	7.40123
480.638	7.44074
483.53	6.10999
486.423	9.04267
489.316	5.02177
492.208	8.19468
495.101	15.8831
497.994	14.4313
500.887	10.6977
503.779	9.04512
506.672	8.63445
509.565	8.68484
512.457	9.12242
515.35	6.25913
518.243	6.16345
521.135	4.74303
524.028	6.61093
526.921	4.87572
529.813	4.12061
532.706	6.32691
535.599	4.4373
538.492	3.75135
541.384	6.72887
544.277	3.1619
547.17	5.009
550.062	6.87188
552.955	2.1362
555.848	4.60398
558.74	4.4622
561.633	1.48342
564.526	3.61525
567.418	5.08376
570.311	1.74395
573.204	10.3316
576.097	0.016694
578.989	5.33411
581.882	8.66603
584.775	6.79092
587.667	1.64241
590.56	8.74525
593.453	2.90858
596.346	6.08394
599.238	3.46991
602.131	3.59458
605.024	9.48358
607.916	5.19147
610.809	0.137605
613.702	3.48941
616.594	3.90277
619.487	0.290128
622.38	7.38735
625.273	9.16997
628.165	3.8428
631.058	7.95283
633.951	3.47826
636.843	6.67419
639.736	4.79715
642.629	4.69626
645.521	7.68263
648.414	5.52987
651.307	8.0227
654.199	3.98818
657.092	5.47028
659.985	8.80256
662.878	1.89131
665.77	5.71431
668.663	2.24495
671.556	5.68471
674.448	7.38293
677.341	3.21109
680.234	4.46491
683.126	2.28336
686.019	3.8087
688.912	5.65193
691.805	2.2506
694.697	4.49244
697.59	7.83763
700.483	2.69512
703.375	1.77637
706.268	3.19488
709.161	1.49774
712.053	1.82204
714.946	7.56722
717.839	11.5195
720.731	18.5452
723.624	13.9586
726.517	21.4279
729.41	21.4367
732.302	22.3672
735.195	14.6069
738.088	18.2466
740.98	9.84353
743.873	8.2756
746.766	10.1571
749.659	9.22794
752.551	3.48917
755.444	5.01133
758.337	0.276936
761.229	3.49445
764.122	3.17399
767.015	7.89198
769.907	1.86226
772.8	7.28578
775.693	5.72024
778.586	1.75097
781.478	5.6942
784.371	3.28315
787.264	0.939098
790.156	7.41858
793.049	1.29802
795.942	3.3146
798.834	4.26884
801.727	2.71636
804.62	3.24134
807.513	0.975705
810.405	0.590623
813.298	2.22625
816.191	4.86461
819.083	2.20287
821.976	0.952306
824.869	8.51335
827.761	4.75967
830.654	1.62444
833.547	8.85361
836.439	1.95951
839.332	5.5557
842.225	5.01862
845.118	7.72769
848.01	0.78779
850.903	6.25824
853.796	3.55605
856.688	4.65709
859.581	3.37033
862.474	5.90396
865.366	7.10368
868.259	3.46187
871.152	5.75609
874.044	0.069329
876.937	5.74311
879.83	5.72292
882.723	4.52175
885.615	3.86672
888.508	4.01044
891.401	5.49542
894.293	4.69688
897.186	1.13842
900.079	2.3207
902.971	1.71705
905.864	6.95689
908.757	1.5065
911.65	0.813912
914.542	5.38574
917.435	5.73896
920.328	2.17907
923.22	3.39192
926.113	6.15719
929.006	5.415
931.899	4.13438
934.791	5.90454
937.684	6.75791
940.577	6.16474
943.469	7.05534
946.362	2.88946
949.255	2.16853
952.147	3.62476
955.04	0.49712
957.933	6.00378
960.825	12.0018
963.718	0.216516
966.611	0.621576
969.504	0.000346
972.396	3.38254
975.289	5.19692
978.182	4.70721
981.074	5.19021
983.967	6.47157
986.86	6.98139
989.752	6.96209
992.645	5.45135
995.538	3.66944
998.431	2.77586
1001.32	2.67958
1004.22	4.1061
1007.11	9.0318
1010	6.81164
1012.89	3.50733
1015.79	1.88756
1018.68	7.20358
1021.57	6.5913
1024.46	6.30514
1027.36	2.72325
1030.25	5.15649
1033.14	1.29212
1036.04	4.14358
1038.93	2.38684
1041.82	8.01629
1044.71	2.2472
1047.61	6.52754
1050.5	1.16464
1053.39	5.66149
1056.29	1.57391
1059.18	4.47589
1062.07	2.6572
1064.96	5.31604
1067.86	7.08538
1070.75	5.37263
1073.64	8.68095
1076.53	3.75784
1079.43	5.06486
1082.32	5.29183
1085.21	7.47053
1088.1	2.97434
1091	3.8554
1093.89	5.99772
1096.78	3.99134
1099.67	1.87622
1102.57	4.25975
1105.46	5.92833
1108.35	4.73901
1111.25	2.47711
1114.14	1.42609
1117.03	2.42307
1119.92	4.01798
1122.82	1.12264
1125.71	1.01199
1128.6	6.45983
1131.49	0.855302
1134.39	6.67824
1137.28	2.55537
1140.17	2.10767
1143.07	4.84416
1145.96	2.24907
1148.85	2.57813
1151.74	0.327
1154.64	4.24216
1157.53	1.9358
1160.42	1.07397
1163.31	4.29169
1166.21	3.10625
1169.1	5.73502
1171.99	4.59536
1174.88	5.66192
1177.78	7.62118
1180.67	4.36873
1183.56	2.9555
1186.46	5.73271
1189.35	6.89499
1192.24	5.19829
1195.13	5.29589
1198.03	5.38444
1200.92	2.0235
1203.81	0.305922
1206.7	6.83739
1209.6	5.579
1212.49	8.59473
1215.38	5.15936
1218.28	3.6595
1221.17	3.14357
1224.06	1.87071
1226.95	5.90868
1229.85	2.20046
1232.74	1.57038
1235.63	1.14484
1238.53	2.89188
1241.42	4.48216
1244.31	3.43344
1247.2	2.72384
1250.1	4.83494
1252.99	4.41677
1255.88	2.83117
1258.77	4.58494
1261.67	6.44343
1264.56	5.89335
1267.45	1.23562
1270.34	0.479266
1273.24	2.91003
1276.13	4.25759
1279.02	8.05411
1281.91	0.133788
1284.81	0
