Measurement: Raman, 532 nm, unoriented, Raman Data Processed
Mineral: Tellurobismuthite
Rruff sample: R070158
Ideal chemistry: Bi^3+^_2_Te^2-^_3_
Locality: Boliden, Skelleftea, Vasterbotten, Sweden
Source: James Shigley
Description: Bright silver sectile metallic plates associated with yellow gold
Raman shift (cm-1)	intensity
118.362	0
121.737	73.1404
125.112	638.378
128.486	1285.92
131.861	1943.14
135.236	2732.89
138.611	2668.95
141.986	3052.01
145.361	2654.54
148.735	2356.71
152.11	2366.71
155.485	2355.36
158.86	2229.38
162.235	2222.31
165.609	2087.93
168.984	1865.27
172.359	1531.8
175.734	1229.43
179.109	957.564
182.483	744.053
185.858	509.548
189.233	405.47
192.608	307.095
195.983	211.147
199.358	180.005
202.732	128.314
206.107	123.872
209.482	91.8096
212.857	59.8423
216.232	7.19238
219.607	57.7241
222.981	5.12512
226.356	7.98303
229.731	41.325
233.106	21.7795
236.481	38.8988
239.855	6.71472
243.23	10.2318
246.605	68.7794
249.98	89.2214
253.355	149.736
256.729	214.933
260.104	235.844
263.479	217.114
266.854	240.949
270.229	224.331
273.604	176.984
276.978	156.488
280.353	91.2035
283.728	135.053
287.103	107.61
290.478	74.695
293.853	62.879
297.227	39.9985
300.602	26.7889
303.977	34.1046
307.352	33.5721
310.727	32.1501
314.101	33.7137
317.476	47.2249
320.851	20.7361
324.226	38.8462
327.601	46.4547
330.976	6.9928
334.35	52.043
337.725	45.6295
341.1	34.1893
344.475	39.194
347.85	48.9417
351.224	31.5863
354.599	27.2578
357.974	11.0588
361.349	29.4421
364.724	22.2175
368.099	39.0706
371.473	7.59051
374.848	19.3771
378.223	39.8743
381.598	27.356
384.973	18.1395
388.347	34.1466
391.722	38.7931
395.097	24.2634
398.472	40.79
401.847	25.13
405.221	29.5103
408.596	29.772
411.971	46.5012
415.346	39.0176
418.721	36.5449
422.096	22.4461
425.47	46.0126
428.845	51.2982
432.22	17.7019
435.595	10.2753
438.97	17.7439
442.344	26.972
445.719	1.53741
449.094	9.57172
452.469	22.5182
455.844	4.63782
459.219	2.62433
462.593	29.6373
465.968	30.5099
469.343	16.0417
472.718	16.7737
476.093	13.5928
479.467	34.3834
482.842	26.6733
486.217	2.21716
489.592	20.3279
492.967	16.1314
496.342	8.13562
499.716	28.0237
503.091	29.8795
506.466	21.8058
509.841	35.3531
513.216	22.364
516.591	25.2728
519.965	23.0539
523.34	15.3057
526.715	25.484
530.09	9.60913
533.465	19.4235
536.839	16.0328
540.214	30.6669
543.589	5.03326
546.964	32.3525
550.339	9.53058
553.713	9.91156
557.088	0.835815
560.463	30.0047
563.838	21.6129
567.213	17.3744
570.588	28.4469
573.962	21.8596
577.337	46.9236
580.712	43.2576
584.087	35.1629
587.462	43.862
590.837	26.2882
594.211	21.751
597.586	30.7138
600.961	27.3521
604.336	40.3364
607.711	38.4802
611.085	37.5466
614.46	43.0273
617.835	12.9604
621.21	17.2379
624.585	39.8704
627.96	17.7938
631.334	25.123
634.709	11.433
638.084	29.6989
641.459	3.26984
644.834	23.7366
648.208	20.069
651.583	18.1802
654.958	16.2251
658.333	14.4838
661.708	7.71698
665.082	8.66919
668.457	25.6547
671.832	22.107
675.207	14.5459
678.582	26.6107
681.957	20.8402
685.331	12.7777
688.706	35.2333
692.081	23.2294
695.456	8.55102
698.831	42.3852
702.206	2.51526
705.58	23.715
708.955	19.9261
712.33	42.2345
715.705	37.8189
719.08	26.5019
722.454	15.7293
725.829	23.1024
729.204	37.7709
732.579	56.9647
735.954	41.7523
739.329	29.4507
742.703	29.041
746.078	37.6457
749.453	42.918
752.828	29.9894
756.203	45.0142
759.577	35.1497
762.952	56.308
766.327	51.6697
769.702	28.1742
773.077	37.7505
776.452	44.1353
779.826	39.4708
783.201	33.9435
786.576	27.6091
789.951	12.9623
793.326	21.0524
796.7	14.5133
800.075	3.60577
803.45	21.4066
806.825	21.8519
810.2	24.7238
813.574	24.9214
816.949	2.49139
820.324	13.5861
823.699	19.3469
827.074	9.58105
830.449	32.4322
833.823	6.07983
837.198	22.4591
840.573	59.3528
843.948	12.3276
847.323	33.958
850.697	26.2299
854.072	17.0365
857.447	23.2114
860.822	32.4472
864.197	18.4783
867.572	12.8148
870.946	20.2323
874.321	41.6781
877.696	42.2737
881.071	38.2551
884.446	16.8944
887.821	9.56097
891.195	20.8475
894.57	16.1367
897.945	20.2201
901.32	7.41583
904.695	3.07104
908.069	16.2396
911.444	12.1644
914.819	22.0785
918.194	39.2879
921.569	18.9759
924.943	16.7203
928.318	21.793
931.693	29.1649
935.068	11.6952
938.443	14.7835
941.818	2.66876
945.192	20.2673
948.567	31.9997
951.942	9.04138
955.317	27.3931
958.692	18.2932
962.067	6.03406
965.441	17.6738
968.816	5.9621
972.191	30.3127
975.566	24.0877
978.941	15.276
982.315	20.8035
985.69	18.7568
989.065	13.5075
992.44	19.6135
995.815	12.8724
999.189	27.5721
1002.56	21.1166
1005.94	16.5797
1009.31	16.3597
1012.69	32.214
1016.06	17.6787
1019.44	9.31165
1022.81	19.2111
1026.19	0.364624
1029.56	7.78461
1032.94	46.7078
1036.31	8.19653
1039.69	21.128
1043.06	24.0086
1046.44	0.419739
1049.81	11.4157
1053.19	14.0971
1056.56	1.07172
1059.94	0.2323
1063.31	11.9783
1066.69	8.9252
1070.06	3.32303
1073.44	6.9632
1076.81	15.2582
1080.18	23.2811
1083.56	18.3374
1086.93	31.0015
1090.31	26.8699
1093.68	39.9417
1097.06	13.1932
1100.43	31.8126
1103.81	26.7647
1107.18	43.1073
1110.56	34.385
1113.93	38.5237
1117.31	22.2974
1120.68	20.1263
1124.06	9.98135
1127.43	23.1062
1130.81	9.63385
1134.18	21.4447
1137.56	30.3651
1140.93	18.8445
1144.31	18.3526
1147.68	25.4352
1151.06	9.31354
1154.43	25.3028
1157.81	27.4987
1161.18	17.2377
1164.56	17.4395
1167.93	36.3083
1171.31	29.4451
1174.68	18.8935
1178.06	2.65494
1181.43	1.8859
1184.81	17.4813
1188.18	16.6524
1191.55	3.84149
1194.93	45.2028
1198.3	13.478
1201.68	27.8606
1205.05	29.1615
1208.43	19.2781
1211.8	28.604
1215.18	27.4934
1218.55	3.21152
1221.93	28.9081
1225.3	0.2724
1228.68	32.8662
1232.05	35.7366
1235.43	32.4299
1238.8	27.5073
1242.18	14.8317
1245.55	21.9318
1248.93	0.969604
1252.3	11.8509
1255.68	15.7039
1259.05	1.10718
1262.42	9.12314
1265.8	22.3981
1269.17	1.38742
1272.55	14.0765
1275.92	15.7317
1279.3	4.65213
1282.67	15.0327
1286.05	27.8958
1289.42	2.77466
1292.8	7.47531
1296.17	19.4593
1299.55	38.5729
1302.92	13.4564
1306.3	12.4073
1309.67	5.07556
1313.05	33.7381
1316.42	6.49713
