Measurement: Raman, 785 nm, unoriented, Raman Data Processed
Mineral: Tellurobismuthite
Rruff sample: R060948
Ideal chemistry: Bi^3+^_2_Te^2-^_3_
Locality: Little Ben mine, Matheson, Ontario, Canada
Source: Bob Jenkins
Description: Metallic steel-gray crystals on quartz
Measured chemistry: Bi_2.00_Te_3.00_
Raman shift (cm-1)	intensity
122.01	0
124.903	33.154
127.796	479.46
130.688	1519.49
133.581	1735.48
136.474	1085.66
139.366	740.48
142.259	490.465
145.152	827.938
148.044	1091.71
150.937	1198.18
153.83	1153.5
156.723	808.472
159.615	699.152
162.508	716.931
165.401	653.168
168.293	576.865
171.186	397.45
174.079	256.208
176.971	148.742
179.864	58.8124
182.757	31.087
185.65	6.17053
188.542	20.75
191.435	31.6614
194.328	11.6485
197.22	18.8918
200.113	11.8352
203.006	15.4546
205.899	0.107092
208.791	4.10762
211.684	14.0319
214.577	11.8273
217.469	3.64737
220.362	35.2436
223.255	16.9074
226.147	28.128
229.04	26.113
231.933	16.7739
234.825	18.9301
237.718	16.7764
240.611	16.5226
243.504	24.0596
246.396	37.6158
249.289	21.4911
252.182	27.3288
255.074	33.1831
257.967	16.1034
260.86	40.3227
263.752	54.6132
266.645	53.1857
269.538	30.8542
272.43	50.4787
275.323	56.8636
278.216	62.3607
281.109	49.4444
284.001	31.4317
286.894	45.9198
289.787	40.1682
292.679	40.4749
295.572	32.9731
298.465	51.245
301.358	55.869
304.25	49.3917
307.143	51.1606
310.036	48.1846
312.928	41.853
315.821	55.1615
318.714	25.0901
321.606	21.437
324.499	29.843
327.392	15.4294
330.284	29.8607
333.177	25.3617
336.07	34.9364
338.963	16.0016
341.855	17.653
344.748	28.9172
347.641	29.2423
350.533	29.0803
353.426	27.0758
356.319	12.2457
359.212	3.68968
362.104	6.91198
364.997	3.20806
367.89	4.29915
370.782	1.97818
373.675	0.498208
376.568	13.774
379.46	24.929
382.353	18.5738
385.246	16.6634
388.139	9.88679
391.031	11.1989
393.924	12.6318
396.817	15.1475
399.709	10.1185
402.602	3.41671
405.495	0.508272
408.387	9.22276
411.28	11.5104
414.173	10.4121
417.065	19.3028
419.958	16.3713
422.851	22.6222
425.744	7.8587
428.636	18.1571
431.529	11.7602
434.422	16.5062
437.314	5.52519
440.207	5.42345
443.1	14.1561
445.993	10.2396
448.885	0.576313
451.778	9.29224
454.671	13.8056
457.563	20.7911
460.456	9.2553
463.349	6.03428
466.241	3.15293
469.134	13.7084
472.027	6.96853
474.92	15.7839
477.812	17.1954
480.705	0.740255
483.598	2.16553
486.49	33.7608
489.383	27.2803
492.276	15.9367
495.168	9.53069
498.061	10.3242
500.954	27.1232
503.846	5.07058
506.739	11.2911
509.632	4.222
512.524	17.5135
515.417	17.0756
518.31	13.8914
521.203	20.5066
524.095	16.0452
526.988	18.9181
529.881	13.1774
532.773	12.9933
535.666	1.78888
538.559	12.4367
541.452	19.3248
544.344	16.6359
547.237	1.07579
550.13	18.0932
553.022	16.4024
555.915	16.7358
558.808	31.6654
561.7	16.3419
564.593	22.6694
567.486	5.40061
570.379	2.6196
573.271	0.978072
576.164	3.25615
579.057	5.3721
581.949	24.6477
584.842	3.12368
587.735	8.68829
590.627	15.2174
593.52	10.2922
596.413	18.9867
599.306	11.5437
602.198	15.009
605.091	7.62458
607.984	16.635
610.876	7.1787
613.769	28.1973
616.662	11.0761
619.554	0.018105
622.447	14.8575
625.34	11.2101
628.232	25.9186
631.125	15.1511
634.018	15.066
636.911	10.4408
639.803	22.4169
642.696	2.84366
645.589	5.83025
648.481	17.2201
651.374	2.6883
654.267	21.0272
657.159	23.5554
660.052	9.31392
662.945	9.62744
665.838	0.725018
668.73	15.4257
671.623	33.1204
674.516	8.81611
677.408	10.2872
680.301	25.2986
683.194	2.60079
686.087	12.0508
688.979	2.70137
691.872	9.38925
694.765	10.1274
697.657	16.799
700.55	9.43373
703.443	21.8332
706.335	27.0161
709.228	19.4
712.121	13.078
715.014	23.3531
717.906	23.5532
720.799	8.10956
723.692	15.1695
726.584	25.267
729.477	25.1354
732.37	12.4039
735.262	13.1879
738.155	25.3014
741.048	15.6322
743.94	6.15424
746.833	4.55241
749.726	20.0517
752.619	12.4563
755.511	27.955
758.404	15.6739
761.297	23.117
764.189	16.8256
767.082	10.8208
769.975	12.2383
772.867	36.3269
775.76	21.6622
778.653	17.6797
781.545	0.645425
784.438	8.39496
787.331	10.521
790.224	11.0514
793.116	27.6098
796.009	1.93691
798.902	6.29357
801.794	0.76792
804.687	0.521439
807.58	22.8655
810.472	18.418
813.365	24.0886
816.258	0.788817
819.151	4.87964
822.043	28.6038
824.936	24.22
827.829	6.22728
830.721	24.0566
833.614	25.7812
836.507	8.96913
839.399	23.3258
842.292	20.0516
845.185	4.44728
848.078	19.6714
850.97	14.3027
853.863	3.82087
856.756	23.6878
859.648	2.08372
862.541	45.2884
865.434	24.566
868.327	1.87956
871.219	9.97075
874.112	12.6745
877.005	9.35274
879.897	7.47387
882.79	15.5953
885.683	8.67816
888.575	7.36248
891.468	18.8227
894.361	14.9119
897.254	2.37442
900.146	2.35082
903.039	20.328
905.932	34.8925
908.824	12.197
911.717	23.9711
914.61	8.60494
917.502	0.325289
920.395	3.65875
923.288	21.2091
926.181	7.53845
929.073	19.6453
931.966	32.2589
934.859	29.2492
937.751	21.3098
940.644	25.9458
943.537	18.1234
946.429	19.9544
949.322	22.5556
952.215	23.0851
955.107	17.9523
958	10.357
960.893	3.5839
963.786	42.3995
966.678	16.8967
969.571	24.4571
972.464	38.9645
975.356	27.0102
978.249	27.2863
981.142	8.20621
984.034	11.077
986.927	11.9708
989.82	0.08031
992.713	1.75378
995.605	22.1982
998.498	32.1384
1001.39	16.3416
1004.28	13.0362
1007.18	32.2566
1010.07	29.9118
1012.96	23.5403
1015.85	43.1397
1018.75	22.2056
1021.64	1.05799
1024.53	12.1354
1027.42	12.1265
1030.32	38.8865
1033.21	0.148224
1036.1	21.5667
1039	33.0084
1041.89	44.3646
1044.78	23.4628
1047.67	20.504
1050.57	14.1762
1053.46	18.5319
1056.35	13.6072
1059.24	35.6893
1062.14	14.2664
1065.03	23.1374
1067.92	10.4475
1070.82	10.4843
1073.71	14.2978
1076.6	32.2711
1079.49	20.621
1082.39	16.8937
1085.28	18.2498
1088.17	10.8801
1091.06	19.7337
1093.96	26.4335
1096.85	2.18995
1099.74	16.0584
1102.63	31.3358
1105.53	6.42177
1108.42	14.933
1111.31	8.66021
1114.21	0.366793
1117.1	16.9113
1119.99	7.6328
1122.88	30.4759
1125.78	12.5898
1128.67	18.4974
1131.56	30.2633
1134.45	7.78203
1137.35	0.882731
1140.24	2.39515
1143.13	17.0316
1146.03	5.24646
1148.92	5.21741
1151.81	1.84589
1154.7	30.792
1157.6	22.2721
1160.49	22.1196
1163.38	32.2876
1166.28	37.0922
1169.17	18.409
1172.06	6.47286
1174.95	10.4107
1177.85	19.944
1180.74	24.4608
1183.63	15.4645
1186.52	29.3774
1189.42	28.7687
1192.31	19.8239
1195.2	13.1508
1198.09	25.7504
1200.99	42.419
1203.88	14.0936
1206.77	5.17526
1209.66	22.6423
1212.56	16.6351
1215.45	16.5737
1218.34	55.9921
1221.24	58.688
1224.13	43.6511
1227.02	57.4252
1229.91	35.5784
1232.81	9.40418
1235.7	6.40867
1238.59	1.07019
1241.48	8.71012
1244.38	25.1989
1247.27	42.2629
1250.16	0
