Measurement: Raman, 785 nm, unoriented, Raman Data Processed
Mineral: Tellurobismuthite
Rruff sample: R070158
Ideal chemistry: Bi^3+^_2_Te^2-^_3_
Locality: Boliden, Skelleftea, Vasterbotten, Sweden
Source: James Shigley
Description: Bright silver sectile metallic plates associated with yellow gold
Raman shift (cm-1)	intensity
111.667	0
114.56	0.74715
117.453	1.75597
120.346	6.7776
123.238	21.783
126.131	94.4814
129.024	194
131.916	278.076
134.809	348.392
137.702	320.954
140.594	391.662
143.487	545.343
146.38	705.696
149.273	809.291
152.165	779.505
155.058	622.005
157.951	510.189
160.843	432.077
163.736	407.38
166.629	376.569
169.521	350.747
172.414	298.395
175.307	264.813
178.2	224.189
181.092	192.355
183.985	179.704
186.878	131.96
189.77	136.039
192.663	102.483
195.556	99.2931
198.448	88.329
201.341	83.4001
204.234	84.8175
207.126	54.3964
210.019	74.7464
212.912	46.4727
215.805	41.8182
218.697	29.8298
221.59	41.0958
224.483	24.5298
227.375	30.2251
230.268	17.6446
233.161	31.4419
236.054	10.1182
238.946	4.59467
241.839	18.5421
244.732	17.0784
247.624	15.0647
250.517	11.4465
253.41	4.49545
256.302	14.8896
259.195	7.54629
262.088	0.293121
264.981	2.2431
267.873	9.97543
270.766	13.4955
273.659	4.57571
276.551	0.321564
279.444	3.09116
282.337	11.921
285.229	9.49603
288.122	4.12209
291.015	14.9896
293.908	5.14708
296.8	0.386963
299.693	1.0333
302.586	1.32092
305.478	25.6351
308.371	1.19949
311.264	7.76894
314.156	7.24634
317.049	22.423
319.942	14.252
322.834	15.0752
325.727	31.071
328.62	23.6101
331.512	19.8992
334.405	13.6603
337.298	17.2445
340.191	30.5256
343.083	7.20351
345.976	34.7573
348.869	38.2941
351.761	21.4218
354.654	20.9669
357.547	24.8637
360.44	24.9914
363.332	22.7207
366.225	27.6
369.118	24.4832
372.01	18.4248
374.903	28.4829
377.796	41.3011
380.688	15.8245
383.581	21.3395
386.474	22.0037
389.366	8.82517
392.259	8.1982
395.152	9.99516
398.045	13.3812
400.937	19.3117
403.83	11.2963
406.723	11.5687
409.615	16.714
412.508	11.6715
415.401	24.9991
418.293	22.3542
421.186	13.4403
424.079	26.6944
426.972	10.2661
429.864	6.49587
432.757	3.56122
435.65	21.9321
438.542	1.04341
441.435	12.073
444.328	9.32955
447.221	4.91792
450.113	30.7589
453.006	16.6397
455.899	21.9215
458.791	20.4796
461.684	11.3029
464.577	17.9031
467.469	14.8421
470.362	21.0654
473.255	2.4988
476.147	12.296
479.04	7.96786
481.933	0.465538
484.826	9.43206
487.718	23.2098
490.611	23.3208
493.504	28.0722
496.396	22.5225
499.289	19.7227
502.182	20.0542
505.075	19.5889
507.967	12.8513
510.86	21.5388
513.753	3.55502
516.645	28.8906
519.538	6.67702
522.431	0.489479
525.323	12.7551
528.216	26.2793
531.109	4.63805
534.001	9.88998
536.894	11.3991
539.787	6.3233
542.68	0.732552
545.572	12.4323
548.465	22.3518
551.358	18.3617
554.25	22.8424
557.143	35.6399
560.036	17.1239
562.928	9.97402
565.821	11.4108
568.714	8.15826
571.607	23.4888
574.499	19.7703
577.392	8.52281
580.285	19.4543
583.177	9.00491
586.07	15.7799
588.963	8.36829
591.856	11.0334
594.748	9.39078
597.641	17.6183
600.534	4.17978
603.426	4.61303
606.319	20.8377
609.212	4.39719
612.104	19.5305
614.997	10.1153
617.89	9.99969
620.783	2.72877
623.675	16.3071
626.568	32.5325
629.461	27.8218
632.353	28.4771
635.246	18.9494
638.139	22.0487
641.031	14.7387
643.924	7.66507
646.817	0.404419
649.71	12.3975
652.602	16.0349
655.495	14.0676
658.388	8.98525
661.28	7.12841
664.173	6.34925
667.066	13.2548
669.958	2.67017
672.851	19.3484
675.744	21.8077
678.636	14.5254
681.529	23.61
684.422	18.6809
687.315	2.0177
690.207	18.3361
693.1	7.0689
695.993	3.33865
698.885	20.2534
701.778	12.4345
704.671	24.4182
707.563	12.3677
710.456	11.8285
713.349	29.3824
716.242	9.66528
719.134	25.0489
722.027	30.7017
724.92	28.0906
727.812	16.2195
730.705	11.57
733.598	2.60336
736.49	10.9724
739.383	28.8563
742.276	10.2008
745.169	24.6256
748.061	24.1053
750.954	26.8221
753.847	18.1598
756.739	12.3545
759.632	18.9818
762.525	11.7647
765.417	1.59427
768.31	6.3656
771.203	1.44853
774.096	14.5202
776.988	5.4568
779.881	22.4274
782.774	16.9322
785.666	22.4526
788.559	35.0198
791.452	13.5424
794.344	1.86446
797.237	19.7741
800.13	12.9895
803.023	8.27594
805.915	13.8581
808.808	7.99816
811.701	12.5615
814.593	11.6967
817.486	11.6226
820.379	9.58626
823.271	22.8356
826.164	33.3751
829.057	33.9966
831.949	35.4509
834.842	36.0901
837.735	25.4162
840.628	24.5853
843.52	16.8032
846.413	26.2843
849.306	10.0586
852.198	12.7865
855.091	2.87505
857.984	25.597
860.876	27.7184
863.769	45.1846
866.662	29.8188
869.555	39.9586
872.447	21.0309
875.34	15.0883
878.233	24.5657
881.125	8.84247
884.018	25.7581
886.911	16.1053
889.803	14.3417
892.696	2.37296
895.589	10.2887
898.482	21.1706
901.374	30.6199
904.267	15.2762
907.16	3.93867
910.052	12.6637
912.945	34.4354
915.838	15.6393
918.731	14.1408
921.623	9.68255
924.516	33.4942
927.409	16.7887
930.301	23.3913
933.194	18.6468
936.087	20.0925
938.979	15.071
941.872	20.7009
944.765	20.5174
947.658	2.89845
950.55	6.43417
953.443	7.7822
956.336	1.30862
959.228	19.4063
962.121	2.99075
965.014	7.25429
967.906	5.80936
970.799	23.573
973.692	26.7402
976.585	7.61648
979.477	13.4854
982.37	17.1397
985.263	16.7925
988.155	19.7678
991.048	19.8898
993.941	6.94018
996.833	12.19
999.726	26.473
1002.62	12.782
1005.51	22.202
1008.4	5.38879
1011.3	2.83044
1014.19	6.84259
1017.08	6.88768
1019.98	11.1209
1022.87	18.6001
1025.76	19.558
1028.65	31.8453
1031.55	14.7947
1034.44	2.1245
1037.33	3.85475
1040.22	23.5821
1043.12	19.1464
1046.01	19.0136
1048.9	31.8041
1051.8	25.4042
1054.69	28.2533
1057.58	0.982971
1060.47	7.91132
1063.37	8.19737
1066.26	20.6616
1069.15	13.2535
1072.04	4.13697
1074.94	6.91341
1077.83	24.3675
1080.72	14.1599
1083.61	0.666718
1086.51	17.6685
1089.4	14.3517
1092.29	20.0061
1095.18	30.2806
1098.08	30.6162
1100.97	18.3285
1103.86	38.0933
1106.76	24.6829
1109.65	0.221039
1112.54	1.66367
1115.43	27.272
1118.33	34.9292
1121.22	12.7195
1124.11	3.45411
1127.01	29.7007
1129.9	13.8339
1132.79	11.0221
1135.68	28.8116
1138.58	24.2438
1141.47	27.6222
1144.36	18.807
1147.25	26.6254
1150.15	14.3818
1153.04	23.8813
1155.93	18.1318
1158.83	33.8195
1161.72	40.8711
1164.61	33.5074
1167.5	15.0706
1170.39	30.5816
1173.29	23.3169
1176.18	14.3182
1179.07	10.0921
1181.97	30.3968
1184.86	19.0523
1187.75	22.3861
1190.64	21.1705
1193.54	16.9882
1196.43	6.5002
1199.32	17.5785
1202.21	18.7705
1205.11	35.2051
1208	3.61333
1210.89	13.4041
1213.79	18.5332
1216.68	7.06537
1219.57	16.565
1222.46	26.6251
1225.36	22.8618
1228.25	22.54
1231.14	9.08733
1234.04	0.158768
1236.93	4.65158
