Measurement: Raman, 532 nm, unoriented, Raman Data Processed
Mineral: Tellurobismuthite
Rruff sample: R060948
Ideal chemistry: Bi^3+^_2_Te^2-^_3_
Locality: Little Ben mine, Matheson, Ontario, Canada
Source: Bob Jenkins
Description: Metallic steel-gray crystals on quartz
Measured chemistry: Bi_2.00_Te_3.00_
Raman shift (cm-1)	intensity
121.041	0
123.934	197.417
126.826	411.038
129.719	579.299
132.612	563.076
135.504	328.873
138.397	196.307
141.29	153.266
144.183	92.3168
147.075	90.5259
149.968	40.3152
152.861	26.5704
155.753	34.6267
158.646	8.94275
161.539	31.015
164.431	23.6023
167.324	31.1655
170.217	20.129
173.109	58.0015
176.002	72.4175
178.895	155.995
181.788	108.478
184.68	195.609
187.573	162.505
190.466	149.116
193.358	168.425
196.251	153.322
199.144	174.001
202.036	126.57
204.929	135.545
207.822	97.3319
210.714	67.3469
213.607	53.3778
216.5	24.3192
219.393	14.1821
222.285	15.2441
225.178	0.490417
228.071	9.31305
230.963	2.12634
233.856	7.49023
236.749	13.5797
239.642	14.5752
242.534	4.12408
245.427	14.0893
248.32	22.4257
251.212	5.0094
254.105	5.73907
256.998	22.0699
259.89	20.9679
262.783	41.9359
265.676	30.7792
268.568	30.0977
271.461	21.88
274.354	32.1694
277.247	24.9799
280.139	36.5438
283.032	29.1647
285.925	18.3175
288.817	49.563
291.71	43.1644
294.603	34.1166
297.495	41.9926
300.388	25.9539
303.281	50.4402
306.174	35.884
309.066	35.1807
311.959	47.5864
314.852	27.1723
317.744	40.7009
320.637	25.2274
323.53	54.8805
326.422	57.3513
329.315	55.0207
332.208	68.0885
335.101	40.5871
337.993	38.5402
340.886	35.0311
343.779	40.0684
346.671	36.0478
349.564	51.0401
352.457	52.3379
355.349	35.5539
358.242	46.941
361.135	17.4279
364.027	26.3735
366.92	48.5529
369.813	39.6757
372.706	6.3158
375.598	21.2968
378.491	48.0651
381.384	16.4282
384.276	23.7337
387.169	14.4578
390.062	36.1502
392.954	22.7629
395.847	7.38123
398.74	21.1587
401.633	3.88281
404.525	12.668
407.418	14.5585
410.311	43.0871
413.203	20.4422
416.096	21.3221
418.989	6.17047
421.881	24.9634
424.774	4.64685
427.667	17.5498
430.56	42.3314
433.452	17.6063
436.345	2.63001
439.238	29.7865
442.13	39.2894
445.023	13.3058
447.916	20.0326
450.808	27.9619
453.701	4.17102
456.594	14.6091
459.486	18.5231
462.379	16.3487
465.272	17.2233
468.165	11.2302
471.057	12.9915
473.95	22.4991
476.843	18.8894
479.735	15.4282
482.628	1.37427
485.521	35.8713
488.413	33.3112
491.306	15.7684
494.199	27.566
497.092	22.3563
499.984	16.7565
502.877	25.8652
505.77	11.4421
508.662	8.56653
511.555	12.225
514.448	36.0277
517.341	58.6567
520.233	37.6911
523.126	27.2069
526.019	38.4513
528.911	24.2823
531.804	47.881
534.697	25.2052
537.589	13.2388
540.482	21.6902
543.375	41.7129
546.268	6.51935
549.16	8.71796
552.053	20.7364
554.946	33.8044
557.838	34.9894
560.731	38.0848
563.624	21.9537
566.516	30.4155
569.409	12.7361
572.302	20.5662
575.194	9.7265
578.087	2.26056
580.98	6.0553
583.872	10.001
586.765	20.8442
589.658	12.7985
592.551	5.23462
595.443	4.72656
598.336	16.9889
601.229	24.5355
604.121	13.2975
607.014	35.4251
609.907	6.31348
612.799	27.978
615.692	19.5253
618.585	40.038
621.477	20.1929
624.37	23.8105
627.263	28.4277
630.156	14.8777
633.048	37.3477
635.941	23.6148
638.834	25.1157
641.726	33.0796
644.619	43.2777
647.512	2.25391
650.404	32.9943
653.297	33.043
656.19	24.5739
659.083	15.9698
661.975	29.567
664.868	8.59479
667.761	20.5137
670.653	12.7965
673.546	12.7082
676.439	39.6049
679.332	2.85846
682.224	35.8384
685.117	32.5937
688.01	19.3966
690.902	40.7163
693.795	37.8571
696.688	16.8156
699.58	49.7048
702.473	39.8079
705.366	41.0441
708.259	49.3095
711.151	10.7647
714.044	32.1517
716.937	47.0839
719.829	58.8434
722.722	54.7171
725.615	71.4412
728.507	55.5928
731.4	78.5837
734.293	73.0195
737.185	71.8036
740.078	69.0621
742.971	49.2263
745.864	81.2691
748.756	72.5354
751.649	57.976
754.542	66.424
757.434	56.5861
760.327	46.8925
763.22	49.2592
766.112	42.7556
769.005	53.1805
771.898	45.0059
774.79	28.1089
777.683	28.1703
780.576	24.5225
783.469	31.5969
786.361	3.2186
789.254	30.7139
792.147	0.104218
795.039	15.9279
797.932	15.1479
800.825	2.32138
803.717	33.0226
806.61	15.219
809.503	15.7173
812.396	5.36029
815.288	0.571442
818.181	14.0288
821.074	19.8884
823.966	28.7223
826.859	36.746
829.752	24.6603
832.644	56.2989
835.537	41.8088
838.43	25.8359
841.323	32.5669
844.215	29.6797
847.108	20.5787
850.001	26.4957
852.893	23.488
855.786	9.28055
858.679	11.6721
861.571	16.645
864.464	7.00235
867.357	29.4463
870.25	24.3016
873.142	13.2111
876.035	32.4298
878.928	17.7363
881.82	34.5862
884.713	41.1554
887.606	37.5579
890.498	30.4356
893.391	31.4883
896.284	26.8929
899.177	23.7493
902.069	19.4879
904.962	14.244
907.855	0.797394
910.747	27.873
913.64	4.34793
916.533	39.9471
919.425	14.2888
922.318	9.64859
925.211	37.2812
928.104	5.14746
930.996	21.5613
933.889	3.73929
936.782	28.049
939.674	20.4736
942.567	19.5966
945.46	56.2104
948.352	35.4371
951.245	21.7477
954.138	38.8718
957.03	43.1898
959.923	21.0748
962.816	35.7565
965.709	4.48822
968.601	30.6551
971.494	16.926
974.387	27.2109
977.279	27.9349
980.172	10.6572
983.065	17.8139
985.957	9.6467
988.85	37.7072
991.743	36.1661
994.635	4.88532
997.528	18.0712
1000.42	25.448
1003.31	25.6968
1006.21	1.3284
1009.1	7.11667
1011.99	38.0753
1014.88	32.2639
1017.78	8.54037
1020.67	4.9776
1023.56	23.2721
1026.45	29.2029
1029.35	11.3761
1032.24	44.6854
1035.13	19.1175
1038.03	39.5449
1040.92	21.7792
1043.81	21.1833
1046.7	21.5073
1049.6	8.08316
1052.49	29.3141
1055.38	45.2092
1058.28	3.60773
1061.17	40.1133
1064.06	21.9099
1066.95	15.4164
1069.85	6.98117
1072.74	18.6343
1075.63	36.6568
1078.52	21.3214
1081.42	18.3481
1084.31	15.0585
1087.2	6.28143
1090.09	15.8364
1092.99	24.4556
1095.88	25.0007
1098.77	15.1235
1101.66	30.1214
1104.56	30.4289
1107.45	20.9499
1110.34	50.9888
1113.24	18.8614
1116.13	27.9849
1119.02	31.32
1121.91	17.8077
1124.81	24.1691
1127.7	8.24329
1130.59	11.2631
1133.48	30.8673
1136.38	15.8802
1139.27	45.7018
1142.16	32.5623
1145.06	27.3532
1147.95	1.20978
1150.84	31.5733
1153.73	25.377
1156.63	7.34683
1159.52	20.7809
1162.41	25.1112
1165.31	31.038
1168.2	12.0096
1171.09	13.9427
1173.98	1.9252
1176.88	24.0464
1179.77	41.8443
1182.66	24.3415
1185.55	23.6654
1188.45	13.1728
1191.34	28.7606
1194.23	6.04584
1197.12	26.2319
1200.02	34.3933
1202.91	25.2067
1205.8	0.689789
1208.69	19.944
1211.59	16.2976
1214.48	44.0653
1217.37	34.1892
1220.27	22.0249
1223.16	1.09238
1226.05	15.955
1228.94	52.316
1231.84	31.5936
1234.73	29.904
1237.62	4.52212
1240.52	6.51273
1243.41	28.9429
1246.3	21.1617
1249.19	40.6969
1252.09	16.6002
1254.98	5.37235
1257.87	15.3922
1260.76	13.0333
1263.66	18.678
1266.55	29.9232
1269.44	0.279297
