Measurement: Raman, 532 nm, unoriented, Raman Data Processed
Mineral: Tenorite
Rruff sample: R060978
Ideal chemistry: Cu^2+^O
Locality: Algomah, Michigan, USA
Source: Michael Scott
Description: Black massive with some prismatic faces, associated with malachite and chrysocolla. Sample is a pseudomorph.
Raman shift (cm-1)	intensity
150.931	0
153.824	1.45019
156.717	12.085
159.61	203.256
162.502	349.06
165.395	401.226
168.288	382.876
171.18	289.307
174.073	302.565
176.966	268.242
179.858	302.357
182.751	359.915
185.644	440.409
188.537	468.4
191.429	376.782
194.322	346.007
197.215	215.273
200.107	384.522
203	394.091
205.893	423.144
208.786	262.825
211.678	247.686
214.571	189.118
217.464	238.215
220.356	246.25
223.249	248.483
226.142	222.062
229.034	124.585
231.927	171.284
234.82	128.97
237.713	227.398
240.605	118.017
243.498	136.408
246.391	171.198
249.283	212.856
252.176	1.02832
255.069	27.0967
257.961	59.9287
260.854	12.5654
263.747	160.715
266.639	84.0225
269.532	93.1865
272.425	44.0098
275.318	114.877
278.21	36.7783
281.103	96.7344
283.996	170.945
286.888	175.019
289.781	180.322
292.674	221.413
295.567	320.336
298.459	291.221
301.352	332.055
304.245	250.704
307.137	160.213
310.03	128.306
312.923	138.391
315.815	22.626
318.708	65.8486
321.601	7.3418
324.493	28.5977
327.386	14.1904
330.279	70.751
333.172	133.581
336.064	93.9922
338.957	76.8545
341.85	104.704
344.742	111.127
347.635	156.09
350.528	120.433
353.421	123.922
356.313	24.6055
359.206	11.2852
362.099	95.0615
364.991	21.0332
367.884	71.8711
370.777	21.7812
373.669	60.3193
376.562	101.101
379.455	75.0381
382.347	30.8359
385.24	88.8223
388.133	153.356
391.026	129.811
393.918	123.578
396.811	46.0977
399.704	109.112
402.596	52.6875
405.489	68.7031
408.382	107.068
411.274	192.219
414.167	134.156
417.06	211.753
419.952	188.164
422.845	91.1602
425.738	123.884
428.631	78.6299
431.523	153.185
434.416	87.5557
437.309	123.77
440.201	188.775
443.094	177.217
445.987	124.95
448.88	137.876
451.772	150.822
454.665	177.316
457.558	15.0264
460.45	69.9824
463.343	1.9541
466.236	61.4873
469.128	157.574
472.021	126.978
474.914	107.258
477.807	27.5195
480.699	85.4394
483.592	129.043
486.485	193.162
489.377	133.602
492.27	81.5019
495.163	38.9336
498.055	21.6855
500.948	18.5723
503.841	0.224609
506.733	40.4316
509.626	41.748
512.519	35.0488
515.412	119.756
518.304	126.5
521.197	108.787
524.09	123.086
526.982	147.639
529.875	99.0723
532.768	4.85547
535.66	56.3613
538.553	17.9629
541.446	23.6992
544.339	127.102
547.231	112.238
550.124	107.117
553.017	19.8809
555.909	28.1797
558.802	45.2207
561.695	110.523
564.587	150.647
567.48	16.9434
570.373	99.9883
573.266	151.412
576.158	87.1426
579.051	46.6367
581.944	240.441
584.836	76.5918
587.729	111.348
590.622	199.853
593.514	395.057
596.407	191.094
599.3	285.576
602.193	315.832
605.085	362.44
607.978	484.289
610.871	488.869
613.763	569.102
616.656	561.707
619.549	624.914
622.442	799.557
625.334	709.748
628.227	729.365
631.12	621.684
634.012	589.75
636.905	506.92
639.798	452.557
642.69	374.283
645.583	402.438
648.476	432.629
651.368	454.51
654.261	386.766
657.154	419.613
660.047	378.928
662.939	258.518
665.832	230.205
668.725	206.815
671.617	161.904
674.51	141.701
677.403	163.785
680.295	94.2519
683.188	106.375
686.081	179.207
688.973	101.502
691.866	159.334
694.759	218.844
697.652	128.961
700.544	50.2949
703.437	72.5078
706.33	48.3223
709.222	44.5645
712.115	68.0039
715.008	7.5
717.9	66.9512
720.793	66.8594
723.686	44.5723
726.579	11.8555
729.471	73.4414
732.364	11.9102
735.257	75.209
738.149	90.9922
741.042	7.51953
743.935	39.0645
746.827	114.818
749.72	211.582
752.613	238.15
755.506	272.828
758.398	160.006
761.291	64.1426
764.184	96.9805
767.076	214.393
769.969	234.977
772.862	264.359
775.755	81.5039
778.647	217.004
781.54	183.633
784.433	312.816
787.325	480.185
790.218	464.477
793.111	544.834
796.003	448.647
798.896	488.666
801.789	520.633
804.682	558.352
807.574	536.775
810.467	518.029
813.36	540.57
816.252	528.219
819.145	572.979
822.038	615.508
824.93	605.252
827.823	754.82
830.716	660.039
833.609	569.547
836.501	570.83
839.394	552.086
842.287	500.676
845.179	401.029
848.072	282.285
850.965	107.627
853.857	119.955
856.75	98.584
859.643	166.623
862.535	46.9258
865.428	124.318
868.321	52.9355
871.214	87.9551
874.106	79.2246
876.999	49.8477
879.892	68.2227
882.784	11.8262
885.677	62.2441
888.57	150.883
891.462	182.971
894.355	296.873
897.248	233.643
900.14	15.2715
903.033	65.3848
905.926	157.125
908.819	59.4395
911.711	148.916
914.604	83.5215
917.497	99.2871
920.389	82.7109
923.282	207.762
926.175	259.769
929.067	152.871
931.96	194.594
934.853	27.666
937.746	127.051
940.638	202.076
943.531	37.1504
946.424	24.5098
949.316	59.2012
952.209	102.725
955.102	95.8047
957.995	23.1562
960.887	53.8145
963.78	89.1211
966.673	39.7148
969.565	142.076
972.458	37.4004
975.351	97.125
978.243	126.769
981.136	119.678
984.029	174.471
986.922	32.1836
989.814	9.03906
992.707	26.3008
995.6	36.334
998.492	90.0078
1001.38	87.0449
1004.28	34.7363
1007.17	81.7754
1010.06	110.037
1012.96	83.9863
1015.85	97.7285
1018.74	24.5918
1021.63	71.1055
1024.53	155.029
1027.42	146.572
1030.31	153.188
1033.2	64.7793
1036.1	120.568
1038.99	178.516
1041.88	105.904
1044.78	97.3672
1047.67	1.66602
1050.56	162.367
1053.45	143.26
1056.35	151.404
1059.24	180.459
1062.13	119.627
1065.02	47.2832
1067.92	69.5898
1070.81	174.85
1073.7	84.4531
1076.6	11.5996
1079.49	65.6269
1082.38	6.45898
1085.27	54.3359
1088.17	87.207
1091.06	49.5391
1093.95	196.912
1096.84	255.574
1099.74	205.102
1102.63	247.018
1105.52	202.607
1108.41	190.125
1111.31	165.002
1114.2	91.8594
1117.09	148.861
1119.99	26.8398
1122.88	50.1875
1125.77	161.496
1128.66	233.5
1131.56	233.019
1134.45	168.992
1137.34	100.336
1140.23	180.033
1143.13	118.861
1146.02	61.0234
1148.91	24.5
1151.81	52.7578
1154.7	97.3691
1157.59	107.686
1160.48	105.805
1163.38	8.37891
1166.27	16.916
1169.16	124.256
1172.05	118.047
1174.95	162.721
1177.84	118.273
1180.73	197.273
1183.62	245.152
1186.52	120.617
1189.41	49.3027
1192.3	35.2012
1195.2	81.4922
1198.09	33.4102
1200.98	110.449
1203.87	59.4238
1206.77	86.6777
1209.66	157.875
1212.55	180.435
1215.44	100.311
1218.34	49.8926
1221.23	51.6289
1224.12	128.5
1227.02	71.4043
1229.91	150.473
1232.8	191.438
1235.69	160.152
1238.59	307.123
1241.48	175.158
1244.37	153.785
1247.26	260.668
1250.16	120.99
1253.05	117.285
1255.94	140.228
1258.84	102.018
1261.73	41.2012
1264.62	11.209
1267.51	11.416
1270.41	200.957
1273.3	305.102
1276.19	252.283
1279.08	172.973
1281.98	41.4746
1284.87	78.3926
1287.76	131.951
1290.65	0
