Measurement: Raman, 780 nm, unoriented, Raman Data Processed
Mineral: Terrywallaceite
Rruff sample: R100007
Ideal chemistry: Ag^1+^Pb^2+^(Sb^3+^,Bi^3+^)_3_S^2-^_6_
Locality: Level 390, Vein 14, Mina Herminia, Julcani District, Huancavelica, Peru
Source: William Pinch
Description: Lath-shaped black crystals with striations parallel to the c-axis. Associated with barite, quartz, pyrite, gustavite, and tetrahedrite.
Measured chemistry: Ag_1.02_Pb_0.87_Sb_1.53_Bi_1.47_(S_5.94_As_0.06_)_Î£=6.00_
Raman shift (cm-1)	intensity
112.394	0
115.769	1.32631
119.144	5.38356
122.519	1.03008
125.893	5.29525
129.268	4.78628
132.643	6.38434
136.018	2.89879
139.393	2.42281
142.768	1.15963
146.142	1.46253
149.517	1.02638
152.892	0.758173
156.267	0.598724
159.642	2.50911
163.016	1.35743
166.391	1.10275
169.766	0.000137
173.141	1.22242
176.516	3.04173
179.89	3.22354
183.265	3.12117
186.64	2.79645
190.015	4.66475
193.39	3.64545
196.764	3.30321
200.139	6.93527
203.514	7.09112
206.889	5.49507
210.264	5.63312
213.639	5.71003
217.013	4.54936
220.388	2.38421
223.763	4.03923
227.138	5.97012
230.513	5.4717
233.887	2.57698
237.262	6.10538
240.637	5.4657
244.012	1.70669
247.387	2.57865
250.762	5.79303
254.136	2.54254
257.511	5.52692
260.886	8.05501
264.261	5.86064
267.636	7.11129
271.01	8.50708
274.385	7.25075
277.76	4.72085
281.135	5.9904
284.51	5.73735
287.885	3.59283
291.259	2.00622
294.634	2.80068
298.009	3.7373
301.384	0.373268
304.759	2.05693
308.134	1.55885
311.508	2.09305
314.883	2.43269
318.258	0.411997
321.633	0.93013
325.008	0.284553
328.382	0.933512
331.757	2.10438
335.132	0.174287
338.507	0.050278
341.882	0.996889
345.257	0.391266
348.631	0.332578
352.006	2.71257
355.381	2.15685
358.756	2.30028
362.131	4.09565
365.505	2.24559
368.88	0.56074
372.255	1.42955
375.63	2.42061
379.005	2.62928
382.38	3.48866
385.754	3.25914
389.129	2.96931
392.504	2.13537
395.879	3.2176
399.253	1.01803
402.628	3.24226
406.003	0.781712
409.378	3.1018
412.753	0.128754
416.128	2.79733
419.502	0.1716
422.877	3.96313
426.252	1.47553
429.627	2.81732
433.002	1.76001
436.377	1.89423
439.751	2.80284
443.126	1.35159
446.501	1.15899
449.876	0.421754
453.251	0.295778
456.625	1.46859
460	0.895022
463.375	1.4156
466.75	1.57657
470.125	0.270283
473.5	1.26953
476.874	2.24528
480.249	0.9483
483.624	0.849239
486.999	2.9331
490.374	1.13181
493.748	1.26148
497.123	1.71113
500.498	1.77554
503.873	0.372474
507.248	0.654174
510.623	1.62892
513.997	0.365174
517.372	1.55483
520.747	1.38893
524.122	0.911819
527.497	1.51953
530.871	2.6648
534.246	0.420763
537.621	2.54815
540.996	1.65323
544.371	2.29135
547.745	2.16351
551.12	3.29634
554.495	1.88257
557.87	0.217303
561.245	1.18094
564.62	0.275066
567.994	2.19464
571.369	1.4322
574.744	2.58853
578.119	1.88538
581.494	3.06653
584.869	4.11985
588.243	3.37073
591.618	0.333987
594.993	2.54357
598.368	3.20079
601.743	1.84107
605.117	1.0628
608.492	4.56658
611.867	1.10004
615.242	1.40541
618.617	2.35627
621.991	1.08159
625.366	1.52868
628.741	1.6985
632.116	3.32725
635.491	2.38049
638.865	2.35459
642.24	2.32218
645.615	1.86899
648.99	1.78321
652.365	1.13324
655.74	3.01381
659.114	2.61991
662.489	3.18941
665.864	1.88322
669.239	1.70368
672.614	0.712356
675.989	1.79719
679.363	3.09348
682.738	2.08684
686.113	0.747659
689.488	0.821211
692.863	2.49775
696.237	2.68024
699.612	1.40923
702.987	2.34116
706.362	3.15433
709.737	2.28813
713.111	1.01973
716.486	0.547
719.861	2.63879
723.236	0.416252
726.611	2.4207
729.986	0.627432
733.36	2.50442
736.735	0.910603
740.11	1.68101
743.485	1.77849
746.86	2.2586
750.235	2.42692
753.609	2.94705
756.984	2.82723
760.359	1.72885
763.734	0.539583
767.109	1.61801
770.483	0.064615
773.858	2.20488
777.233	1.45998
780.608	2.11014
783.983	2.12968
787.357	1.63191
790.732	2.74582
794.107	0.255261
797.482	2.6314
800.857	3.58408
804.232	0.303223
807.606	2.73388
810.981	2.5008
814.356	2.77991
817.731	0.744331
821.106	0.238353
824.481	2.23242
827.855	1.99264
831.23	3.47244
834.605	1.57081
837.98	0.089377
841.355	2.16902
844.729	0.099595
848.104	1.46729
851.479	2.61467
854.854	2.99086
858.229	2.04573
861.604	1.34557
864.978	1.83478
868.353	1.90645
871.728	1.47395
875.103	0.38435
878.477	0.288465
881.852	0.522487
885.227	2.70429
888.602	2.33297
891.977	0.316785
895.352	3.36344
898.726	0.312174
902.101	1.49338
905.476	1.44344
908.851	0.960972
912.226	0.997443
915.601	1.0396
918.975	2.30026
922.35	2.44433
925.725	2.10994
929.1	0.872066
932.475	2.13529
935.849	1.86618
939.224	1.23665
942.599	0.243956
945.974	0.582928
949.349	0.384019
952.723	1.65745
956.098	2.58305
959.473	2.01833
962.848	2.61169
966.223	0.872953
969.598	1.44298
972.972	0.391162
976.347	1.86887
979.722	2.43166
983.097	3.02812
986.472	0.901423
989.846	4.11014
993.221	3.52847
996.596	1.44939
999.971	0.22765
1003.35	1.19969
1006.72	1.96432
1010.1	2.04543
1013.47	2.47557
1016.85	1.73619
1020.22	1.54928
1023.6	1.7319
1026.97	2.39391
1030.34	0.342952
1033.72	0.158094
1037.09	1.88877
1040.47	2.27369
1043.84	2.25239
1047.22	1.8645
1050.59	2.47365
1053.97	0.614009
1057.34	2.49227
1060.72	3.20335
1064.09	1.92465
1067.47	0.190284
1070.84	2.07972
1074.22	1.28028
1077.59	0.524141
1080.97	1.63386
1084.34	1.16323
1087.72	0.19142
1091.09	2.12375
1094.47	1.60329
1097.84	1.13105
1101.21	0.318264
1104.59	1.88027
1107.96	3.18391
1111.34	1.5355
1114.71	1.29128
1118.09	2.2874
1121.46	0.845489
1124.84	1.85387
1128.21	0.633249
1131.59	2.17684
1134.96	1.67625
1138.34	1.91236
1141.71	1.33355
1145.09	2.30978
1148.46	3.06578
1151.84	2.349
1155.21	1.74197
1158.59	-0.0238405
1161.96	0.015159
1165.34	1.97696
1168.71	5.00241
1172.09	1.04402
1175.46	3.37104
1178.84	1.9079
1182.21	0.629234
1185.59	1.51812
1188.96	0.259862
1192.34	2.90602
1195.71	1.90139
1199.09	0.721423
1202.46	2.06487
1205.84	2.26076
1209.21	4.63243
1212.58	1.59486
1215.96	2.88211
1219.33	1.70528
1222.71	0.68707
1226.08	2.05876
1229.46	3.01555
1232.83	1.86617
1236.21	0.989589
1239.58	1.33433
1242.96	1.33467
1246.33	1.72657
1249.71	3.96386
1253.08	1.16172
1256.46	1.16748
1259.83	2.65495
1263.21	0.027099
1266.58	3.33557
1269.96	2.58904
1273.33	1.50304
1276.71	4.20115
1280.08	0.808456
1283.46	0.041178
