Measurement: Raman, 532 nm, unoriented, Raman Data Processed
Mineral: Tetradymite
Rruff sample: R110138
Ideal chemistry: Bi^3+^_2_Te^2-^_2_S^2-^
Locality: Schubkau, Schemnitz, Hungary
Source: William W. Pinch
Description: Aggregate of grey crystals with a dull surface but bright silver grey on fresh cleavage
Raman shift (cm-1)	intensity
186.916	37.7775
189.808	36.6933
192.701	37.6033
195.594	35.6921
198.486	38.0833
201.379	38.0466
204.272	38.252
207.164	38.607
210.057	37.5469
212.95	39.4153
215.843	37.7757
218.735	37.2879
221.628	34.7557
224.521	37.4983
227.413	36.5914
230.306	36.5024
233.199	36.7675
236.091	35.9519
238.984	34.5155
241.877	36.1945
244.769	33.8429
247.662	35.494
250.555	34.9876
253.448	34.8814
256.34	34.3696
259.233	34.1821
262.126	33.1438
265.018	33.9304
267.911	31.6504
270.804	31.3119
273.697	31.0409
276.589	31.3939
279.482	30.7072
282.375	28.8092
285.267	27.8542
288.16	29.1847
291.053	28.6098
293.945	26.9001
296.838	28.4985
299.731	26.2072
302.623	28.2193
305.516	27.1123
308.409	26.6782
311.302	26.4981
314.194	26.0175
317.087	24.6597
319.98	25.5016
322.872	25.7828
325.765	25.4259
328.658	25.8553
331.55	24.2777
334.443	24.1933
337.336	22.0129
340.229	23.0309
343.121	22.5164
346.014	22.2214
348.907	23.3271
351.799	22.7793
354.692	21.986
357.585	22.4328
360.478	21.3737
363.37	22.3072
366.263	19.7532
369.156	19.735
372.048	19.6078
374.941	19.2751
377.834	19.62
380.726	19.5283
383.619	17.9998
386.512	17.6633
389.404	19.5609
392.297	17.5873
395.19	16.5252
398.083	16.2677
400.975	17.2956
403.868	16.6712
406.761	17.3444
409.653	16.9087
412.546	18.4235
415.439	16.5475
418.332	15.5671
421.224	16.4881
424.117	15.7172
427.01	17.4152
429.902	15.6977
432.795	15.9032
435.688	15.0696
438.58	15.9534
441.473	14.3895
444.366	16.036
447.259	13.5075
450.151	14.3115
453.044	14.3593
455.937	14.9567
458.829	13.0741
461.722	16.4482
464.615	15.9837
467.507	14.3354
470.4	14.1227
473.293	13.9382
476.185	13.4637
479.078	13.6529
481.971	13.6844
484.864	14.086
487.756	14.1616
490.649	13.0213
493.542	12.648
496.434	13.4629
499.327	14.2338
502.22	13.7079
505.113	14.114
508.005	12.6512
510.898	13.246
513.791	13.2531
516.683	13.2896
519.576	11.9963
522.469	12.3333
525.361	12.6099
528.254	11.8299
531.147	13.4239
534.04	11.1725
536.932	13.1615
539.825	12.1838
542.718	13.6463
545.61	12.8521
548.503	12.8086
551.396	13.2884
554.288	12.6351
557.181	13.6352
560.074	13.1488
562.967	11.6336
565.859	13.0404
568.752	13.3381
571.645	12.3483
574.537	13.461
577.43	13.7615
580.323	13.5232
583.216	11.7663
586.108	12.1521
589.001	12.9629
591.894	12.3941
594.786	14.7846
597.679	13.1856
600.572	13.0366
603.464	12.7267
606.357	13.1836
609.25	13.2179
612.142	12.8303
615.035	12.9326
617.928	13.3347
620.821	12.4702
623.713	14.3953
626.606	13.3723
629.499	13.488
632.391	13.1261
635.284	12.1605
638.177	12.585
641.069	13.3754
643.962	15.1618
646.855	14.7136
649.747	13.403
652.64	14.8018
655.533	14.5686
658.426	13.5642
661.318	12.8529
664.211	14.0935
667.104	14.9729
669.996	15.2287
672.889	14.6115
675.782	14.1746
678.674	14.6661
681.567	15.699
684.46	14.1509
687.353	15.211
690.245	14.9314
693.138	15.0173
696.031	15.4055
698.923	15.308
701.816	15.6656
704.709	16.9267
707.601	14.4694
710.494	15.7606
713.387	15.7278
716.28	16.0887
719.172	16.8938
722.065	15.1843
724.958	16.3564
727.85	15.6543
730.743	16.7076
733.636	15.7298
736.529	16.6793
739.421	17.7394
742.314	16.5003
745.207	17.3139
748.099	16.9369
750.992	16.7626
753.885	17.6143
756.777	18.443
759.67	17.1278
762.563	18.3117
765.456	18.56
768.348	18.8261
771.241	18.3963
774.134	17.747
777.026	18.7242
779.919	19.0806
782.812	18.5166
785.704	18.0198
788.597	18.9321
791.49	20.9184
794.383	19.7727
797.275	19.2478
800.168	18.8152
803.061	19.3721
805.953	19.7581
808.846	20.5296
811.739	19.5444
814.631	20.9038
817.524	20.1167
820.417	20.3506
823.309	20.7592
826.202	20.3667
829.095	21.0992
831.988	20.733
834.88	20.1276
837.773	20.7492
840.666	20.155
843.558	21.4361
846.451	21.2286
849.344	22.1399
852.236	19.6527
855.129	20.1529
858.022	20.0218
860.915	18.5778
863.807	18.8651
866.7	18.7681
869.593	18.8091
872.485	18.3428
875.378	17.5699
878.271	17.0935
881.163	17.0356
884.056	16.2744
886.949	17.223
889.842	16.4921
892.734	14.2058
895.627	15.7404
898.52	14.4676
901.412	13.2824
904.305	13.6108
907.198	13.0438
910.091	14.19
912.983	12.2552
915.876	11.313
918.769	12.9592
921.661	12.638
924.554	11.9624
927.447	12.3657
930.339	12.0402
933.232	10.8475
936.125	10.6974
939.018	10.729
941.91	10.8719
944.803	10.7563
947.696	11.8874
950.588	10.3027
953.481	11.5034
956.374	10.2217
959.266	10.5956
962.159	10.8543
965.052	10.663
967.944	9.86513
970.837	10.0646
973.73	10.0372
976.623	10.2631
979.515	9.32269
982.408	10.31
985.301	7.9403
988.193	9.66756
991.086	9.77367
993.979	9.20717
996.871	10.0396
999.764	9.41518
1002.66	10.19
1005.55	8.21023
1008.44	8.62708
1011.34	8.56367
1014.23	8.52072
1017.12	9.45468
1020.01	9.30115
1022.91	10.2515
1025.8	9.26054
1028.69	9.53372
1031.58	9.1491
1034.48	9.24729
1037.37	8.58238
1040.26	8.4627
1043.15	8.95122
1046.05	9.66624
1048.94	9.23385
1051.83	8.2718
1054.73	8.8096
1057.62	8.55485
1060.51	8.01001
1063.4	8.26937
1066.3	8.10294
1069.19	8.64373
1072.08	8.29139
1074.97	7.48245
1077.87	6.77272
1080.76	7.67753
1083.65	8.10094
1086.55	8.08585
1089.44	7.46597
1092.33	7.10973
1095.22	7.24709
1098.12	8.0433
1101.01	6.27475
1103.9	6.55359
1106.79	7.39294
1109.69	7.49893
1112.58	7.45406
1115.47	6.53083
1118.37	7.40348
1121.26	5.7018
1124.15	5.93035
1127.04	6.99312
1129.94	6.27371
1132.83	5.35366
1135.72	6.31833
1138.61	6.07959
1141.51	6.07364
1144.4	6.09425
1147.29	5.81227
1150.18	5.63783
1153.08	4.75203
1155.97	6.08579
1158.86	6.21918
1161.76	5.68084
1164.65	5.52813
1167.54	4.62384
1170.43	5.73048
1173.33	5.60194
1176.22	6.20665
1179.11	5.81571
1182	5.76283
1184.9	5.00101
1187.79	6.45108
1190.68	5.48965
1193.58	5.21456
1196.47	5.4323
1199.36	6.43651
1202.25	4.30725
1205.15	5.98378
1208.04	4.77457
1210.93	3.96261
1213.82	6.64189
1216.72	5.04382
1219.61	5.21818
1222.5	6.38398
1225.39	5.11559
1228.29	6.01681
1231.18	6.69096
1234.07	5.93988
1236.97	5.34124
1239.86	5.44981
1242.75	5.55253
1245.64	5.28463
1248.54	4.89283
1251.43	4.94583
1254.32	5.94246
1257.21	5.55599
1260.11	4.65212
1263	4.80101
1265.89	5.93806
1268.79	5.63417
1271.68	5.28562
1274.57	5.535
1277.46	5.21637
1280.36	3.86781
1283.25	4.92602
1286.14	4.62891
1289.03	5.45097
1291.93	6.27461
1294.82	5.96199
1297.71	6.49229
1300.61	5.32906
