Measurement: Raman, 532 nm, unoriented, Raman Data Processed
Mineral: Tetradymite
Rruff sample: R130067
Ideal chemistry: Bi^3+^_2_Te^2-^_2_S^2-^
Locality: Oravica, Transylvania, Romania
Source: William W. Pinch
Description: Mass of platy dark gray crystals
Raman shift (cm-1)	intensity
176.143	0
179.035	0.482704
181.928	1.00341
184.821	1.37397
187.713	1.39788
190.606	2.89465
193.499	2.56005
196.392	1.92631
199.284	3.88115
202.177	3.50285
205.07	3.31009
207.962	4.16399
210.855	3.15494
213.748	3.44329
216.64	2.47659
219.533	2.73734
222.426	1.26223
225.319	2.66438
228.211	2.50517
231.104	1.81106
233.997	3.15456
236.889	2.00783
239.782	1.16266
242.675	2.10623
245.567	1.02631
248.46	1.59024
251.353	1.26255
254.245	0.837416
257.138	0.928782
260.031	1.24836
262.924	0.869113
265.816	1.35649
268.709	0.424474
271.602	0.222213
274.494	0.847676
277.387	0.346466
280.28	0.467963
283.173	0.104016
286.065	0.728749
288.958	0.416998
291.851	0.514375
294.743	1.00797
297.636	0.988519
300.529	0.172803
303.421	0.596224
306.314	0.132892
309.207	1.3837
312.099	0.892998
314.992	1.25177
317.885	1.86828
320.778	1.26347
323.67	2.05678
326.563	1.3502
329.456	1.70624
332.348	0.97904
335.241	1.21657
338.134	1.28601
341.027	1.26337
343.919	0.729223
346.812	1.07867
349.705	0.009982
352.597	1.62371
355.49	0.475984
358.383	1.06861
361.276	0.771777
364.168	0.803456
367.061	0.88033
369.954	1.88586
372.846	1.1459
375.739	0.4952
378.632	0.332569
381.524	0.053049
384.417	0.311116
387.31	0.991883
390.202	0.471312
393.095	1.16998
395.988	0.521414
398.881	0.987021
401.773	0.057834
404.666	0.240891
407.559	0.026387
410.451	0.295462
413.344	0.502868
416.237	0.527401
419.13	0.755925
422.022	0.009044
424.915	0.014045
427.808	0.740228
430.7	0.609169
433.593	1.14537
436.486	0.74581
439.378	0.79606
442.271	0.974639
445.164	1.04448
448.057	1.00149
450.949	0.613404
453.842	0.545185
456.735	0.991227
459.627	0.825639
462.52	0.773191
465.413	0.005095
468.305	0.902998
471.198	0.629431
474.091	0.721806
476.983	0.622704
479.876	0.867107
482.769	0.364375
485.662	0.373756
488.554	0.914313
491.447	0.88713
494.34	0.813415
497.232	0.684988
500.125	1.01729
503.018	0.741029
505.911	0.284967
508.803	1.12802
511.696	0.128641
514.589	0.149446
517.481	0.660655
520.374	0.414881
523.267	1.0246
526.159	0.650277
529.052	1.1645
531.945	0.335178
534.837	0.151579
537.73	0.046883
540.623	0.942912
543.516	0.949674
546.408	0.270564
549.301	0.117177
552.194	0.092988
555.086	0.40219
557.979	1.43995
560.872	1.0635
563.764	0.459169
566.657	0.754173
569.55	0.818498
572.443	0.031006
575.335	0.752776
578.228	0.838223
581.121	0.576033
584.013	0.562093
586.906	0.16873
589.799	0.217122
592.692	0.481239
595.584	1.11112
598.477	0.628931
601.37	0.666874
604.262	0.598087
607.155	0.557914
610.048	0.083312
612.94	0.851665
615.833	0.234329
618.726	0.851103
621.619	0.653556
624.511	0.760767
627.404	0.730831
630.297	0.893454
633.189	0.223558
636.082	0.78652
638.975	0.114162
641.867	0.604068
644.76	0.518602
647.653	0.631484
650.545	0.424902
653.438	0.993862
656.331	0.419736
659.224	0.512439
662.116	0.06128
665.009	0.729632
667.902	0.034217
670.794	0.806168
673.687	0.553596
676.58	0.274179
679.472	0.484475
682.365	1.00835
685.258	0.436177
688.151	0.020864
691.043	0.203405
693.936	0.516647
696.829	1.04376
699.721	0.754994
702.614	0.311486
705.507	0.537989
708.399	0.95793
711.292	1.06345
714.185	0.827526
717.078	0.09956
719.97	0.111796
722.863	0.376397
725.756	0.407149
728.648	0.251159
731.541	0.637692
734.434	0.157541
737.327	0.586312
740.219	0.714617
743.112	0.03329
746.005	0.714123
748.897	0.536486
751.79	0.46966
754.683	0.602485
757.575	0.797661
760.468	0.177045
763.361	0.431958
766.254	1.28486
769.146	0.459146
772.039	0.182533
774.932	0.441758
777.824	0.211363
780.717	0.179371
783.61	1.06183
786.502	0.457237
789.395	0.205558
792.288	1.09695
795.181	0.872329
798.073	0.269422
800.966	0.571001
803.859	0.477298
806.751	0.537688
809.644	1.57352
812.537	0.264446
815.429	0.60552
818.322	0.791036
821.215	0.757178
824.107	0.990116
827	0.625677
829.893	0.594743
832.786	0.846801
835.678	0.804583
838.571	1.19002
841.464	1.11354
844.356	0.643069
847.249	0.746495
850.142	0.113677
853.034	0.650414
855.927	1.19449
858.82	0.441623
861.713	0.666024
864.605	0.584603
867.498	0.670656
870.391	0.415866
873.283	0.023135
876.176	0.232652
879.069	0.002376
881.962	0.436151
884.854	0.746226
887.747	0.838397
890.64	0.462044
893.532	0.263727
896.425	0.417671
899.318	0.727379
902.21	0.891385
905.103	0.605008
907.996	0.558101
910.889	0.758305
913.781	0.570356
916.674	0.245198
919.567	0.584229
922.459	0.839175
925.352	0.829101
928.245	0.007591
931.137	0.859439
934.03	0.625729
936.923	0.703397
939.816	0.491815
942.708	0.716051
945.601	0.708353
948.494	1.03856
951.386	0.279751
954.279	0.013369
957.172	0.786089
960.064	0.261232
962.957	0.497116
965.85	1.11969
968.742	0.820645
971.635	1.42595
974.528	0.502321
977.421	0.792009
980.313	0.085543
983.206	1.37188
986.099	1.07812
988.991	0.517409
991.884	0.481927
994.777	0.397141
997.669	0.425016
1000.56	1.10808
1003.46	0.940032
1006.35	1.0965
1009.24	0.224839
1012.13	0.782221
1015.03	0.887741
1017.92	0.581462
1020.81	0.284205
1023.7	0.348156
1026.6	1.45101
1029.49	1.18053
1032.38	1.27936
1035.28	0.447415
1038.17	0.999547
1041.06	0.398854
1043.95	0.848743
1046.85	0.094788
1049.74	0.034798
1052.63	1.00029
1055.52	0.793034
1058.42	0.305206
1061.31	0.737655
1064.2	0.046236
1067.09	0.789697
1069.99	0.760536
1072.88	0.317541
1075.77	1.05684
1078.66	1.08516
1081.56	0.700676
1084.45	0.549931
1087.34	0.91796
1090.24	0.525632
1093.13	0.958679
1096.02	0.508662
1098.91	1.12411
1101.81	0.798631
1104.7	0.068009
1107.59	1.15046
1110.48	0.513723
1113.38	0.144423
1116.27	0.151666
1119.16	0.926788
1122.06	0.065227
1124.95	0.700681
1127.84	0.771228
1130.73	0.473812
1133.63	0.233569
1136.52	0.740651
1139.41	0.875223
1142.3	0.267032
1145.2	0.355765
1148.09	0.860715
1150.98	0.139594
1153.88	0.50697
1156.77	0.710728
1159.66	0.841171
1162.55	0.886608
1165.45	0.939017
1168.34	0.747259
1171.23	0.407665
1174.12	0.249267
1177.02	0.356629
1179.91	0.882202
1182.8	0.137877
1185.69	0.825412
1188.59	0.770499
1191.48	1.2615
1194.37	0.638999
1197.27	0.047892
1200.16	0.374563
1203.05	0.438247
1205.94	0.453138
1208.84	0.348807
1211.73	0.221699
1214.62	0.857063
1217.52	0.734504
1220.41	0.438445
1223.3	0.703476
1226.19	1.15435
1229.09	0.72747
1231.98	0.76974
1234.87	0.639253
1237.76	0.810766
1240.66	0.603071
1243.55	0.535848
1246.44	0.741748
1249.33	0.003522
1252.23	0.230404
1255.12	0.196515
1258.01	0.329055
1260.9	0.977106
1263.8	0.849223
1266.69	0.668689
1269.58	0.696932
1272.48	0.842386
1275.37	0.88073
1278.26	0.784724
1281.15	0.382605
1284.05	0.828498
1286.94	0.383338
1289.83	0.094915
1292.72	0.24937
1295.62	0.271331
1298.51	0.328804
1301.4	0.077302
