Measurement: Raman, 780 nm, unoriented, Raman Data Processed
Mineral: Thomasclarkite-(Y)
Rruff sample: R110186
Ideal chemistry: NaY(HCO_3_)(OH)_3_4H_2_O
Locality: Mont Saint-Hilaire, Quebec, Canada
Source: Donald Doell
Description: Aggregate of sharp yellow blocky crystals
Raman shift (cm-1)	intensity
92.0856	240.949
95.4604	251.625
98.8353	228.624
102.21	212.726
105.585	210.79
108.96	211.073
112.335	213.732
115.709	215.298
119.084	217.438
122.459	222.292
125.834	230.003
129.209	234.852
132.583	238.625
135.958	250.626
139.333	262.504
142.708	274.09
146.083	287.548
149.458	298.536
152.832	305.031
156.207	308.372
159.582	306.974
162.957	308.312
166.332	315.684
169.706	320.985
173.081	332.909
176.456	346.136
179.831	362.457
183.206	382.087
186.581	401.941
189.955	416.459
193.33	435.216
196.705	459.051
200.08	482.548
203.455	513.14
206.829	546.26
210.204	574.075
213.579	603.973
216.954	637.466
220.329	660.999
223.703	681.876
227.078	693.852
230.453	704.367
233.828	703.56
237.203	697.106
240.578	681.523
243.952	663.27
247.327	643.96
250.702	627.907
254.077	614.187
257.452	607.602
260.827	610.472
264.201	609.323
267.576	620.014
270.951	627.208
274.326	641.103
277.701	657.997
281.075	670.586
284.45	685.816
287.825	703.991
291.2	726.604
294.575	756.678
297.95	794.606
301.324	835.562
304.699	889.874
308.074	949.566
311.449	1016.94
314.824	1081
318.198	1140.48
321.573	1181.34
324.948	1195.94
328.323	1190.81
331.698	1151.85
335.072	1100.47
338.447	1036.72
341.822	968.301
345.197	908.229
348.572	854.244
351.947	806.184
355.321	773.997
358.696	754.377
362.071	736.02
365.446	726.115
368.821	723.008
372.195	727.571
375.57	721.142
378.945	720.291
382.32	716.034
385.695	707.15
389.07	689.847
392.444	675.052
395.819	651.651
399.194	638.796
402.569	620.028
405.944	608.319
409.318	602.017
412.693	602.389
416.068	604.455
419.443	612.195
422.818	614.17
426.192	616.961
429.567	614.769
432.942	611.607
436.317	602.499
439.692	584.876
443.067	563.531
446.441	539.264
449.816	515.65
453.191	489.909
456.566	465.957
459.941	444.197
463.315	424.274
466.69	404.888
470.065	388.787
473.44	373.936
476.815	359.004
480.19	346.233
483.564	336.075
486.939	321.765
490.314	316.289
493.689	304.965
497.064	295.733
500.438	284.985
503.813	281.022
507.188	275.338
510.563	269.698
513.938	266.305
517.313	262.715
520.687	262.815
524.062	262.132
527.437	262.745
530.812	266.15
534.187	264.528
537.562	263.971
540.936	264.036
544.311	259.573
547.686	250.979
551.061	245.904
554.436	240.504
557.81	236.167
561.185	233.489
564.56	232.707
567.935	231.361
571.31	233.324
574.684	234.217
578.059	234.78
581.434	235.538
584.809	234.041
588.184	230.101
591.558	223.907
594.933	216.49
598.308	209.202
601.683	202.456
605.058	197.277
608.433	193.905
611.807	190.208
615.182	190.571
618.557	188.629
621.932	187.334
625.307	187.127
628.682	188.959
632.056	188.707
635.431	186.532
638.806	191.471
642.181	180.254
645.556	175.56
648.93	174.441
652.305	168.937
655.68	169.311
659.055	168.124
662.43	166.726
665.804	167.789
669.179	168.938
672.554	171.375
675.929	172.442
679.304	175.218
682.679	177.859
686.053	179.9
689.428	183.621
692.803	183.334
696.178	183.457
699.553	181.145
702.928	182.157
706.302	176.754
709.677	173.496
713.052	167.121
716.427	163.607
719.802	160.585
723.176	158.809
726.551	157.429
729.926	157.879
733.301	152.625
736.676	147.233
740.051	142.715
743.425	141.91
746.8	146.402
750.175	149.424
753.55	143.332
756.925	131.203
760.299	122.574
763.674	118.262
767.049	115.267
770.424	111.937
773.799	109.544
777.173	109.845
780.548	106.676
783.923	104.995
787.298	104.398
790.673	104.507
794.048	104.527
797.422	103.197
800.797	102.212
804.172	101.615
807.547	102.34
810.922	102.274
814.296	103.168
817.671	103.296
821.046	103.058
824.421	102.28
827.796	102.146
831.17	103.378
834.545	105.368
837.92	103.355
841.295	103.66
844.67	102.486
848.045	102.22
851.419	99.6233
854.794	100.063
858.169	98.7083
861.544	96.3328
864.919	95.5326
868.293	93.6806
871.668	92.199
875.043	91.6048
878.418	88.8115
881.793	88.0729
885.168	87.5568
888.542	86.8267
891.917	85.1517
895.292	85.7636
898.667	86.2212
902.042	87.1883
905.417	87.125
908.791	86.3584
912.166	87.2892
915.541	89.121
918.916	89.644
922.291	90.1665
925.665	91.4147
929.04	93.4564
932.415	94.2994
935.79	95.4944
939.165	97.5313
942.539	100.444
945.914	101.019
949.289	103.878
952.664	107.329
956.039	110.124
959.414	113.324
962.788	116.723
966.163	117.699
969.538	120.696
972.913	122.847
976.288	126.211
979.663	129.53
983.037	132.82
986.412	133.87
989.787	138.199
993.162	139.825
996.537	143.997
999.911	147.071
1003.29	151.645
1006.66	154.443
1010.04	159.037
1013.41	162.193
1016.78	170.29
1020.16	176.394
1023.53	182.709
1026.91	189.758
1030.29	196.187
1033.66	204.193
1037.03	211.194
1040.41	220.224
1043.78	228.394
1047.16	236.633
1050.53	248.936
1053.91	260.186
1057.28	273.356
1060.66	290.607
1064.03	313.674
1067.41	350.347
1070.78	415.307
1074.16	518.55
1077.53	564.572
1080.91	550.27
1084.28	420.963
1087.66	421.795
1091.03	451.68
1094.41	513.383
1097.78	593.861
1101.16	573.84
1104.53	548.003
1107.91	564.485
1111.28	587.275
1114.65	618.343
1118.03	655.388
1121.4	699.342
1124.78	748.362
1128.15	798.596
1131.53	857.612
1134.9	919.75
1138.28	986.419
1141.65	1062.55
1145.03	1139.4
1148.4	1231.27
1151.78	1331.69
1155.15	1448.03
1158.53	1572.61
1161.9	1722.95
1165.28	1888.41
1168.65	2074.25
1172.03	2269.41
1175.4	2496.98
1178.78	2729.24
1182.15	2977.59
1185.53	3233.59
1188.9	3486.26
1192.28	3734.36
1195.65	3940.07
1199.03	4121.17
1202.4	4258.39
1205.78	4348.35
1209.15	4365.44
1212.53	4380.5
1215.9	4370.89
1219.27	4357.77
1222.65	4368.58
1226.02	4424.33
1229.4	4460.06
1232.77	4552.27
1236.15	4658.39
1239.52	4778.17
1242.9	4917.26
1246.27	5072.79
1249.65	5221.65
1253.02	5366.33
1256.4	5474
1259.77	5562.21
1263.15	5597.19
1266.52	5619.97
1269.9	5582.05
1273.27	5509.6
1276.65	5418.56
1280.02	5306.78
1283.4	5228.39
