Measurement: Raman, 780 nm, unoriented, Raman Data RAW
Mineral: Thortveitite
Rruff sample: R060360
Ideal chemistry: Sc^3+^_2_Si_2_O_7_
Locality: Rossa, near Evje, southern Norway
Source: Michael Scott
Description: Gray transparent prismatic crystal
Measured chemistry: (Sc_1.44_Y_0.30_Zr_0.07_Fe^3+^_0.08_Mn_0.06_Yb_0.05_)_Σ=2_(Si_1.99_Al_0.01_)_Σ=2_O_7_
Raman shift (cm-1)	intensity
91.5332	1443.28
94.908	1466.48
98.2828	1370.5
101.658	1249.88
105.032	1180.7
108.407	1119.11
111.782	1070.76
115.157	1041.72
118.532	1015.63
121.907	1008.32
125.281	1016.7
128.656	1040.23
132.031	1075.74
135.406	1130.45
138.781	1192.16
142.155	1275.85
145.53	1371.02
148.905	1483.55
152.28	1605.45
155.655	1720.38
159.03	1853.33
162.404	1973.6
165.779	2087.77
169.154	2173.8
172.529	2227.59
175.904	2255.68
179.278	2238.02
182.653	2209.7
186.028	2154.61
189.403	2074.68
192.778	1975.77
196.153	1868.44
199.527	1755.79
202.902	1643.51
206.277	1540.91
209.652	1433.81
213.027	1328.38
216.401	1238.44
219.776	1154.23
223.151	1076.47
226.526	1007.09
229.901	949.47
233.275	896.645
236.65	854.531
240.025	818.168
243.4	795.562
246.775	769.212
250.15	752.997
253.524	740.985
256.899	728.28
260.274	721.407
263.649	724.307
267.024	722.627
270.399	724.078
273.773	725.245
277.148	728.136
280.523	736.263
283.898	746.576
287.273	747.402
290.647	750.913
294.022	752.586
297.397	755.438
300.772	750.421
304.147	752.966
307.522	751.469
310.896	746.21
314.271	747.738
317.646	752.811
321.021	747.177
324.396	747.59
327.77	753.052
331.145	752.788
334.52	758.462
337.895	768.061
341.27	773.639
344.644	785.614
348.019	803.171
351.394	810.246
354.769	821.681
358.144	844.936
361.519	857.816
364.893	878.832
368.268	900.803
371.643	916.446
375.018	937.567
378.393	948.877
381.767	969.397
385.142	977.628
388.517	994.754
391.892	992.298
395.267	997.831
398.642	988.79
402.016	989.114
405.391	980.821
408.766	972.33
412.141	961.966
415.516	952.764
418.89	942.005
422.265	942.213
425.64	935.39
429.015	939.305
432.39	944.678
435.765	951.78
439.139	957.175
442.514	967.049
445.889	986.29
449.264	994.279
452.639	1013.65
456.014	1031.52
459.388	1041.46
462.763	1057.74
466.138	1063.59
469.513	1073.19
472.887	1078.61
476.262	1080.06
479.637	1070.93
483.012	1068.07
486.387	1063.19
489.762	1049.22
493.136	1039.66
496.511	1027.67
499.886	1014.41
503.261	995.914
506.636	981.856
510.01	965.609
513.385	946.285
516.76	923.481
520.135	900.564
523.51	880.76
526.885	862.688
530.259	836.955
533.634	813.945
537.009	797.002
540.384	770.032
543.759	744.276
547.134	724.096
550.508	698.853
553.883	678.279
557.258	656.205
560.633	636.976
564.008	616.888
567.382	597.625
570.757	578.194
574.132	556.179
577.507	541.56
580.882	524.979
584.256	510.746
587.631	498.237
591.006	483.318
594.381	470.892
597.756	458.534
601.131	443.899
604.505	438.135
607.88	425.67
611.255	417.087
614.63	405.854
618.005	398.743
621.38	390.192
624.754	383.454
628.129	373.782
631.504	367.513
634.879	360.51
638.254	355.871
641.628	349.723
645.003	343.294
648.378	339.302
651.753	333.985
655.128	324.893
658.503	321.42
661.877	320.005
665.252	313.97
668.627	312.23
672.002	310.964
675.377	306.628
678.751	303.83
682.126	300.865
685.501	295.37
688.876	293.824
692.251	292.95
695.625	285.213
699	285.877
702.375	283.684
705.75	279.547
709.125	280.854
712.5	274.803
715.874	271.21
719.249	270.962
722.624	266.428
725.999	265.687
729.374	260.193
732.749	255.367
736.123	252.861
739.498	247.613
742.873	243.081
746.248	238.03
749.623	232.502
752.997	226.146
756.372	223.268
759.747	216.706
763.122	214.841
766.497	207.175
769.871	201.41
773.246	195.984
776.621	190.72
779.996	187.509
783.371	183.895
786.745	179.105
790.12	175.572
793.495	170.256
796.87	167.36
800.245	164.842
803.62	159.768
806.994	157.802
810.369	154.627
813.744	149.299
817.119	149.419
820.494	145.804
823.869	145.119
827.243	138.277
830.618	139.745
833.993	137.427
837.368	132.173
840.743	130.717
844.117	129.996
847.492	126.035
850.867	125.657
854.242	121.531
857.617	121.645
860.991	119.291
864.366	117.163
867.741	115.564
871.116	113.038
874.491	112.867
877.866	110.302
881.24	108.619
884.615	107.628
887.99	105.072
891.365	104.063
894.74	101.369
898.115	102.472
901.489	99.4607
904.864	99.529
908.239	97.193
911.614	95.7412
914.989	95.683
918.363	95.5283
921.738	94.3114
925.113	91.5898
928.488	91.6212
931.863	89.7215
935.237	87.9454
938.612	86.504
941.987	85.0119
945.362	81.2168
948.737	81.8948
952.112	79.3922
955.486	76.5342
958.861	73.8154
962.236	73.8803
965.611	70.6686
968.986	69.0733
972.361	67.7327
975.735	65.3462
979.11	64.2169
982.485	63.8817
985.86	63.3171
989.235	59.5401
992.609	59.15
995.984	58.4734
999.359	56.7006
1002.73	56.6227
1006.11	53.8573
1009.48	56.1923
1012.86	53.9679
1016.23	51.7043
1019.61	51.5152
1022.98	50.0422
1026.36	49.1429
1029.73	49.073
1033.11	48.1083
1036.48	47.9025
1039.86	47.9365
1043.23	45.1678
1046.61	44.0141
1049.98	44.4786
1053.36	43.3284
1056.73	42.7431
1060.11	42.8966
1063.48	41.6937
1066.86	42.4552
1070.23	40.9596
1073.61	39.3143
1076.98	38.755
1080.36	38.025
1083.73	38.5556
1087.1	37.0663
1090.48	36.1706
1093.85	36.3505
1097.23	34.7831
1100.6	35.122
1103.98	34.5192
1107.35	33.6674
1110.73	33.26
1114.1	31.7437
1117.48	32.1454
1120.85	31.4882
1124.23	30.2944
1127.6	29.5083
1130.98	30.8013
1134.35	30.5647
1137.73	28.743
1141.1	29.1529
1144.48	28.5311
1147.85	28.322
1151.23	28.0713
1154.6	27.0803
1157.97	27.6277
1161.35	28.3111
1164.72	26.8915
1168.1	27.6902
1171.47	27.2775
1174.85	27.8108
1178.22	26.9792
1181.6	28.4581
1184.97	27.8888
1188.35	28.0109
1191.72	27.5636
1195.1	28.9862
1198.47	30.0044
1201.85	30.5661
1205.22	30.7764
1208.6	32.1089
1211.97	32.7284
1215.35	34.3773
1218.72	36.6589
1222.1	38.252
1225.47	41.7655
1228.85	40.8911
1232.22	44.3295
1235.6	46.8769
1238.97	48.9684
1242.35	50.8032
1245.72	52.8958
1249.1	53.6082
1252.47	52.0371
1255.85	51.8179
1259.22	51.3162
1262.6	50.1268
1265.97	48.0485
1269.34	47.8797
1272.72	45.4583
1276.09	43.6997
1279.47	41.2931
1282.84	41.1198
