Measurement: Raman, 532 nm, unoriented, Raman Data Processed
Mineral: Tiemannite
Rruff sample: R060463
Ideal chemistry: Hg^2+^Se^2-^
Locality: Lucky Boy mine, Cottonwood Creek, Marysvale, Piute County, Utah, USA
Source: Michael Scott
Description: Gray metallic bleb
Measured chemistry: Hg_1.02_Se_0.98_
Raman shift (cm-1)	intensity
184.023	0
186.916	1.32628
189.808	3.35822
192.701	6.13602
195.594	3.61823
198.486	4.52054
201.379	5.42758
204.272	4.87303
207.164	4.20068
210.057	3.99322
212.95	3.78038
215.843	3.60895
218.735	3.13862
221.628	2.08709
224.521	2.56945
227.413	1.38752
230.306	0.559464
233.199	0.081161
236.091	0.881264
238.984	0.063148
241.877	0.608231
244.769	1.47021
247.662	0.145126
250.555	0.627964
253.448	0.672539
256.34	1.1444
259.233	0.25111
262.126	0.432476
265.018	1.77182
267.911	1.1171
270.804	0.385311
273.697	0.913767
276.589	0.130281
279.482	0.954203
282.375	0.806154
285.267	1.38933
288.16	1.55966
291.053	1.00955
293.945	1.1662
296.838	1.72459
299.731	1.90486
302.623	2.61945
305.516	3.36564
308.409	3.14899
311.302	2.96131
314.194	3.92089
317.087	4.00447
319.98	3.81377
322.872	2.91026
325.765	3.73787
328.658	3.98592
331.55	3.15103
334.443	3.63574
337.336	2.01869
340.229	2.23639
343.121	2.80106
346.014	3.69948
348.907	2.80634
351.799	2.51807
354.692	2.08065
357.585	2.78146
360.478	1.63329
363.37	1.2104
366.263	1.56945
369.156	0.075569
372.048	0.398918
374.941	1.75139
377.834	0.441847
380.726	3.2544
383.619	0.254202
386.512	1.80807
389.404	2.50012
392.297	1.21215
395.19	0.489756
398.083	0.74987
400.975	0.640191
403.868	1.15905
406.761	0.911195
409.653	0.373474
412.546	1.03641
415.439	1.34971
418.332	0.465549
421.224	0.065298
424.117	1.37577
427.01	1.03414
429.902	0.845283
432.795	0.309029
435.688	1.25487
438.58	1.16452
441.473	1.2015
444.366	1.31171
447.259	1.9908
450.151	1.61885
453.044	1.00828
455.937	1.47604
458.829	1.32464
461.722	0.906665
464.615	1.3164
467.507	1.45378
470.4	1.62389
473.293	1.34177
476.185	1.96715
479.078	1.6673
481.971	2.41252
484.864	1.21106
487.756	0.995259
490.649	0.859394
493.542	0.158276
496.434	0.12366
499.327	1.96723
502.22	2.13719
505.113	1.47704
508.005	1.77079
510.898	0.87674
513.791	0.240715
516.683	0.148542
519.576	0.71677
522.469	0.231659
525.361	1.48148
528.254	1.07742
531.147	0.90569
534.04	0.202593
536.932	1.77721
539.825	0.834544
542.718	2.00063
545.61	2.12073
548.503	0.92703
551.396	1.70373
554.288	1.37487
557.181	1.3994
560.074	1.2423
562.967	0.285394
565.859	1.10759
568.752	1.03544
571.645	2.05188
574.537	0.999641
577.43	2.44534
580.323	1.25903
583.216	0.676432
586.108	1.37637
589.001	0.59213
591.894	0.872867
594.786	0.763541
597.679	0.822201
600.572	2.1558
603.464	0.156625
606.357	1.1332
609.25	0.872242
612.142	0.599325
615.035	0.999864
617.928	0.508391
620.821	0.29927
623.713	0.678732
626.606	0.516916
629.499	1.78659
632.391	0.932015
635.284	1.22951
638.177	0.76738
641.069	2.10179
643.962	0.692199
646.855	1.88189
649.747	0.708305
652.64	1.03897
655.533	1.45596
658.426	1.37967
661.318	0.614423
664.211	0.913372
667.104	1.34895
669.996	1.86362
672.889	1.48342
675.782	1.07253
678.674	1.66213
681.567	1.25866
684.46	1.01477
687.353	1.48407
690.245	1.98512
693.138	0.936002
696.031	1.21709
698.923	1.38044
701.816	0.709138
704.709	0.822539
707.601	0.008861
710.494	1.02363
713.387	0.545156
716.28	0.321663
719.172	0.752665
722.065	0.520623
724.958	1.99251
727.85	0.194642
730.743	1.34983
733.636	1.27566
736.529	1.40708
739.421	1.42687
742.314	0.346875
745.207	0.780774
748.099	1.49159
750.992	0.579256
753.885	0.038443
756.777	1.20771
759.67	0.381166
762.563	1.98092
765.456	2.48706
768.348	1.32837
771.241	0.999914
774.134	0.974364
777.026	1.71082
779.919	1.47548
782.812	0.592358
785.704	1.14162
788.597	1.92191
791.49	0.288563
794.383	1.18542
797.275	1.55894
800.168	0.409602
803.061	1.143
805.953	2.04122
808.846	2.02846
811.739	1.82407
814.631	1.59413
817.524	0.904298
820.417	0.275685
823.309	0.286223
826.202	1.02585
829.095	0.73199
831.988	2.70695
834.88	1.63393
837.773	1.00194
840.666	0.888425
843.558	0.672676
846.451	1.36179
849.344	0.095667
852.236	0.085869
855.129	0.172978
858.022	1.49147
860.915	0.907258
863.807	0.798391
866.7	1.42074
869.593	0.023146
872.485	0.389511
875.378	1.1162
878.271	1.4645
881.163	1.55923
884.056	1.74528
886.949	1.96741
889.842	2.02503
892.734	1.75505
895.627	1.66851
898.52	1.23658
901.412	0.649497
904.305	0.450788
907.198	0.555672
910.091	2.51317
912.983	1.82657
915.876	0.04741
918.769	0.857743
921.661	1.22783
924.554	1.06687
927.447	1.29536
930.339	1.82159
933.232	0.489521
936.125	1.67964
939.018	0.733798
941.91	1.0777
944.803	1.53705
947.696	1.77953
950.588	1.75323
953.481	1.0947
956.374	1.22637
959.266	1.55821
962.159	1.46475
965.052	0.903903
967.944	0.512489
970.837	1.20015
973.73	1.1157
976.623	0.78322
979.515	0.92895
982.408	1.38158
985.301	1.93579
988.193	1.24881
991.086	1.16481
993.979	0.488744
996.871	1.34312
999.764	1.9569
1002.66	0.051192
1005.55	0.302971
1008.44	0.976945
1011.34	0.474812
1014.23	0.437765
1017.12	0.446371
1020.01	0.855206
1022.91	0.887777
1025.8	0.512681
1028.69	0.562927
1031.58	0.75971
1034.48	0.992118
1037.37	0.690256
1040.26	0.062046
1043.15	0.946301
1046.05	0.918165
1048.94	0.123638
1051.83	0.665673
1054.73	0.42602
1057.62	1.17592
1060.51	0.808153
1063.4	1.24293
1066.3	1.38337
1069.19	1.6123
1072.08	2.0167
1074.97	0.565998
1077.87	0.061114
1080.76	0.980799
1083.65	0.762057
1086.55	1.93593
1089.44	0.628998
1092.33	1.58153
1095.22	1.23239
1098.12	1.00622
1101.01	0.979937
1103.9	1.47083
1106.79	0.516436
1109.69	0.628441
1112.58	0.291368
1115.47	0.562622
1118.37	1.37152
1121.26	1.07465
1124.15	0.90675
1127.04	2.12268
1129.94	0.139904
1132.83	0.74001
1135.72	2.28116
1138.61	0.924439
1141.51	0.510686
1144.4	2.50164
1147.29	1.09566
1150.18	0.848452
1153.08	0.794765
1155.97	1.07368
1158.86	2.29152
1161.76	1.52645
1164.65	2.11242
1167.54	1.08901
1170.43	0.371256
1173.33	1.81012
1176.22	1.10696
1179.11	0.599141
1182	1.3134
1184.9	1.82972
1187.79	2.53244
1190.68	0.982627
1193.58	0.912119
1196.47	0.718177
1199.36	1.05416
1202.25	1.25277
1205.15	0.383611
1208.04	1.29587
1210.93	0.134952
1213.82	1.07309
1216.72	1.86254
1219.61	0.342345
1222.5	1.62974
1225.39	2.26352
1228.29	0.37026
1231.18	1.16425
1234.07	0.491524
1236.97	1.23782
1239.86	1.21065
1242.75	0.937099
1245.64	0.804646
1248.54	0.826456
1251.43	0.718554
1254.32	1.36736
1257.21	0.072271
1260.11	1.63944
1263	0.731722
1265.89	1.53908
1268.79	0.704619
1271.68	0.048885
1274.57	0.877117
1277.46	2.15073
1280.36	0.022715
1283.25	1.35948
1286.14	1.82143
1289.03	2.18237
1291.93	1.90957
1294.82	0.848128
1297.71	1.05408
1300.61	0.276153
