Measurement: Raman, 785 nm, unoriented, Raman Data Processed
Mineral: Tin
Rruff sample: R060756
Ideal chemistry: Sn
Locality: Aberfoil river, near Oban, New South Wales, Australia
Source: Michael Scott
Description: Tin-white metallic water-worn grains
Measured chemistry: Sn
Raman shift (cm-1)	intensity
166.365	0
169.257	99.0254
172.15	86.0979
175.043	61.7632
177.935	21.1362
180.828	35.5239
183.721	59.3792
186.613	43.8879
189.506	40.4075
192.399	16.3643
195.292	78.405
198.184	80.5012
201.077	133.668
203.97	127.728
206.862	155.088
209.755	135.279
212.648	89.7419
215.54	114.704
218.433	100.223
221.326	94.4985
224.219	102.8
227.111	119.018
230.004	120.458
232.897	107.439
235.789	68.0994
238.682	129.318
241.575	88.1506
244.467	85.1421
247.36	135.316
250.253	60.6792
253.146	61.5706
256.038	73.7041
258.931	78.0737
261.824	17.2627
264.716	11.5784
267.609	67.5991
270.502	12.373
273.394	30.8774
276.287	54.1602
279.18	51.8752
282.073	56.8372
284.965	66.9382
287.858	20.227
290.751	19.7087
293.643	25.9343
296.536	8.18579
299.429	42.5059
302.321	71.1821
305.214	95.2681
308.107	107.4
311	104.249
313.892	91.4082
316.785	116.154
319.678	31.772
322.57	21.385
325.463	38.2105
328.356	86.176
331.248	88.7678
334.141	94.3699
337.034	67.2256
339.927	46.6562
342.819	92.4766
345.712	89.918
348.605	84.8203
351.497	38.4817
354.39	47.8591
357.283	88.1965
360.175	54.8884
363.068	8.37378
365.961	27.353
368.853	33.4609
371.746	62.9714
374.639	48.2571
377.532	58.4819
380.424	54.2263
383.317	27.4041
386.21	24.7908
389.102	13.5852
391.995	1.27026
394.888	86.2869
397.78	51.3821
400.673	33.7764
403.566	6.33032
406.459	20.7754
409.351	15.7192
412.244	67.2978
415.137	44.2246
418.029	49.0459
420.922	35.3616
423.815	77.8152
426.708	44.28
429.6	41.218
432.493	53.0571
435.386	40.2432
438.278	23.0903
441.171	20.4326
444.064	41.8689
446.957	27.6626
449.849	53.7502
452.742	38.9656
455.635	7.0332
458.527	23.709
461.42	19.1963
464.313	29.3574
467.205	31.093
470.098	23.9334
472.991	25.1108
475.883	18.3845
478.776	8.32837
481.669	22.7505
484.561	11.6045
487.454	39.4145
490.347	62.6931
493.24	52.1716
496.132	28.2205
499.025	36.6445
501.918	40.8704
504.81	60.1797
507.703	19.3235
510.596	12.6338
513.489	15.5737
516.381	46.03
519.274	38.8403
522.167	41.7295
525.059	20.6296
527.952	5.18652
530.845	41.2375
533.737	36.8684
536.63	8.1001
539.523	40.3313
542.416	53.187
545.308	5.17676
548.201	21.689
551.094	46.398
553.986	32.9629
556.879	28.959
559.772	49.0461
562.664	64.2751
565.557	68.9321
568.45	42.1367
571.343	48.5808
574.235	38.1763
577.128	82.0706
580.021	54.6968
582.913	60.8782
585.806	66.5666
588.699	9.8916
591.591	18.0386
594.484	75.8569
597.377	7.22436
600.269	35.4236
603.162	45.5356
606.055	76.6914
608.948	35.5303
611.84	46.5405
614.733	49.3171
617.626	29.5352
620.518	31.3801
623.411	38.9397
626.304	19.4805
629.196	22.8755
632.089	50.8782
634.982	16.5259
637.875	36.0486
640.767	43.2998
643.66	42.6543
646.553	57.8318
649.445	31.658
652.338	41.084
655.231	19.0056
658.123	49.9153
661.016	43.3779
663.909	10.3081
666.802	11.0854
669.694	21.0388
672.587	38.9536
675.48	30.9951
678.372	76.478
681.265	66.2139
684.158	52.794
687.05	26.177
689.943	44.0159
692.836	32.6982
695.729	40.2693
698.621	57.9392
701.514	72.8015
704.407	45.876
707.299	29.4651
710.192	0.119385
713.085	16.6982
715.977	35.4404
718.87	62.0481
721.763	42.0178
724.656	41.1138
727.548	47.4714
730.441	45.0747
733.334	50.5688
736.226	2.86523
739.119	49.3528
742.012	57.0413
744.904	96.0112
747.797	86.4932
750.69	67.3591
753.583	67.4128
756.475	72.3213
759.368	51.6216
762.261	71.644
765.153	67.7398
768.046	1.99268
770.939	51.8538
773.831	58.0542
776.724	29.3926
779.617	46.6826
782.51	45.6765
785.402	52.1299
788.295	84.5456
791.188	71.9658
794.08	84.1748
796.973	35.3828
799.866	22.4009
802.758	6.44434
805.651	44.0288
808.544	36.4285
811.437	88.6675
814.329	65.8267
817.222	64.8611
820.115	69.8208
823.007	53.7739
825.9	34.7883
828.793	71.437
831.685	47.7637
834.578	47.2097
837.471	55.9856
840.364	49.4856
843.256	27.7295
846.149	44.7398
849.042	44.6345
851.934	6.28491
854.827	12.0947
857.72	72.0142
860.612	46.7358
863.505	36.9949
866.398	14.252
869.291	15.6968
872.183	85.3643
875.076	38.4502
877.969	22.0747
880.861	37.1985
883.754	47.5503
886.647	42.9631
889.539	44.4409
892.432	44.4255
895.325	116.517
898.218	103.744
901.11	56.1738
904.003	66.803
906.896	24.1992
909.788	34.7471
912.681	68.2739
915.574	0.902344
918.466	21.8433
921.359	9.56494
924.252	52.4165
927.145	28.8845
930.037	99.4741
932.93	50.4148
935.823	35.9644
938.715	114.719
941.608	53.7932
944.501	40.156
947.393	37.095
950.286	19.9661
953.179	32.0325
956.072	18.4666
958.964	78.8564
961.857	61.217
964.75	45.1133
967.642	80.1868
970.535	52.0708
973.428	46.6853
976.32	51.8948
979.213	60.7588
982.106	85.1174
984.999	47.5891
987.891	26.2659
990.784	25.0872
993.677	22.523
996.569	27.9714
999.462	77.364
1002.36	107.404
1005.25	77.1321
1008.14	44.3586
1011.03	40.293
1013.93	38.5115
1016.82	79.6809
1019.71	53.4414
1022.6	10.415
1025.5	20.7983
1028.39	1.38281
1031.28	54.4707
1034.17	20.9216
1037.07	24.335
1039.96	14.8977
1042.85	32.4168
1045.74	99.958
1048.64	63.3953
1051.53	29.7505
1054.42	85.3023
1057.32	62.8003
1060.21	37.512
1063.1	56.2009
1065.99	13.8926
1068.89	14.554
1071.78	3.88037
1074.67	1.30664
1077.57	17.0286
1080.46	27.406
1083.35	34.6418
1086.24	46.7844
1089.14	32.0813
1092.03	17.063
1094.92	18.1746
1097.81	10.658
1100.71	60.9368
1103.6	69.9934
1106.49	17.0757
1109.38	82.4399
1112.28	9.34106
1115.17	29.2044
1118.06	63.773
1120.95	41.3772
1123.85	47.6189
1126.74	19.7097
1129.63	45.009
1132.53	41.1179
1135.42	42.5251
1138.31	29.8467
1141.2	4.1521
1144.1	111.487
1146.99	59.8984
1149.88	39.9663
1152.78	66.0681
1155.67	72.7739
1158.56	104.687
1161.45	86.1582
1164.35	47.4961
1167.24	46.404
1170.13	38.9009
1173.02	81.8
1175.92	78.8992
1178.81	65.3103
1181.7	39.8071
1184.6	11.8574
1187.49	82.6401
1190.38	43.4285
1193.27	64.1663
1196.17	81.0681
1199.06	39.5981
1201.95	123.066
1204.84	54.1316
1207.74	3.1543
1210.63	66.7754
1213.52	53.4966
1216.41	69.1506
1219.31	67.7869
1222.2	77.5456
1225.09	84.936
1227.98	66.0598
1230.88	52.939
1233.77	72.3606
1236.66	47.6277
1239.56	1.25757
1242.45	85.9111
1245.34	82.7795
1248.23	68.3286
1251.13	68.592
1254.02	34.7812
1256.91	38.8623
1259.81	32.7886
1262.7	21.582
1265.59	18.7004
