Measurement: Raman, 532 nm, unoriented, Raman Data Processed
Mineral: Tincalconite
Rruff sample: R050660
Ideal chemistry: Na_2_B_4_O_5_(OH)_4_3H_2_O
Locality: Boron, Kern County, California, USA
Source: Marcus Origlieri
Description: Colorless pseudo-octahedral crystal
Raman shift (cm-1)	intensity
135.101	0
138.475	59.7568
141.85	69.4856
145.225	75.36
148.6	144.706
151.975	241.883
155.35	249.571
158.724	231.67
162.099	214.806
165.474	200.491
168.849	201.073
172.224	225.203
175.598	240.479
178.973	233.461
182.348	203.184
185.723	158.498
189.098	126.147
192.472	99.467
195.847	81.9957
199.222	58.9227
202.597	42.8735
205.972	20.5107
209.347	6.86865
212.721	1.39087
216.096	0.921265
219.471	11.3811
222.846	6.98065
226.221	4.10901
229.596	0.5979
232.97	3.0733
236.345	5.60803
239.72	2.10425
243.095	3.302
246.47	0.098816
249.845	3.69214
253.219	4.01874
256.594	0.844727
259.969	1.57666
263.344	2.41852
266.719	4.89648
270.093	0.679016
273.468	0.850647
276.843	1.41266
280.218	1.40155
283.593	1.1535
286.967	5.18085
290.342	10.0595
293.717	12.9472
297.092	16.1145
300.467	31.4896
303.842	42.7777
307.216	64.3361
310.591	94.5342
313.966	140.39
317.341	189.087
320.716	243.251
324.091	313.408
327.465	408.087
330.84	533.324
334.215	651.964
337.59	731.087
340.965	812.823
344.339	849.205
347.714	716.01
351.089	465.489
354.464	267.551
357.839	155.715
361.214	105.966
364.588	66.5135
367.963	46.5181
371.338	41.7432
374.713	40.4454
378.088	56.2368
381.462	79.394
384.837	116.254
388.212	171.586
391.587	221.982
394.962	265.699
398.337	325.566
401.712	401.559
405.086	433.426
408.461	360.046
411.836	201.777
415.211	81.3006
418.586	33.6213
421.96	9.3866
425.335	1.49329
428.71	3.75421
432.085	9.16138
435.46	6.28906
438.834	5.17248
442.209	2.06317
445.584	11.4012
448.959	28.2595
452.334	53.2239
455.709	83.4462
459.083	109.494
462.458	131.062
465.833	118.984
469.208	84.6779
472.583	50.5048
475.957	28.0547
479.332	23.2853
482.707	27.0919
486.082	35.1785
489.457	55.6016
492.832	84.6504
496.206	118.434
499.581	158.258
502.956	194.777
506.331	169.908
509.706	101.172
513.081	54.5675
516.455	29.7715
519.83	25.6211
523.205	17.9865
526.58	4.29919
529.955	3.72986
533.33	4.31653
536.704	0.745972
540.079	11.9047
543.454	18.1081
546.829	44.8793
550.204	77.4534
553.578	130.066
556.953	237.886
560.328	492.527
563.703	1017.13
567.078	1561.88
570.452	2292.87
573.827	3388.11
577.202	4281.08
580.577	2931.68
583.952	1497.33
587.327	1217.95
590.701	1071.75
594.076	653.317
597.451	281.865
600.826	133.062
604.201	72.1906
607.576	40.4136
610.95	25.512
614.325	8.17279
617.7	5.96314
621.075	0.797119
624.45	5.26251
627.824	0.023499
631.199	6.09546
634.574	9.87085
637.949	19.3358
641.324	11.9993
644.698	0.78125
648.073	3.05975
651.448	0.398193
654.823	2.02747
658.198	0.827332
661.573	0.853516
664.947	1.34711
668.322	1.6355
671.697	2.8042
675.072	6.66083
678.447	3.11157
681.822	0.5979
685.196	4.5896
688.571	0.523804
691.946	2.17957
695.321	1.17047
698.696	9.39722
702.071	6.90362
705.445	4.62677
708.82	7.92786
712.195	6.11859
715.57	2.78186
718.945	2.49097
722.319	0.030396
725.694	3.10071
729.069	1.73022
732.444	0.536499
735.819	8.4314
739.193	6.72754
742.568	14.3489
745.943	36.9183
749.318	80.8147
752.693	167.702
756.068	286.943
759.442	447.596
762.817	615.171
766.192	672.543
769.567	511.763
772.942	311.768
776.317	180.876
779.691	110.989
783.066	65.4741
786.441	43.2001
789.816	24.7998
793.191	19.0571
796.566	22.6206
799.94	17.5972
803.315	17.5064
806.69	23.0415
810.065	20.3766
813.44	12.7557
816.814	12.431
820.189	19.9475
823.564	19.9215
826.939	18.8905
830.314	12.0045
833.688	11.6506
837.063	22.512
840.438	21.7618
843.813	16.162
847.188	10.9066
850.563	16.1875
853.937	20.6129
857.312	21.2256
860.687	20.3457
864.062	24.7452
867.437	18.5842
870.812	16.603
874.186	7.66125
877.561	2.59924
880.936	2.41223
884.311	1.87402
887.686	0.654175
891.061	5.05713
894.435	1.49744
897.81	3.1228
901.185	2.49219
904.56	2.52722
907.935	5.11853
911.309	5.63977
914.684	15.0817
918.059	21.3866
921.434	33.4967
924.809	51.8475
928.183	97.5038
931.558	170.375
934.933	268.194
938.308	351.402
941.683	386.868
945.058	347.524
948.432	268.027
951.807	178.717
955.182	110.836
958.557	77.3888
961.932	64.6724
965.307	62.9845
968.681	68.4177
972.056	75.2494
975.431	95.5188
978.806	118.387
982.181	136.507
985.556	162.694
988.93	183.3
992.305	194.904
995.68	180.316
999.055	147.173
1002.43	103.219
1005.8	65.4026
1009.18	39.4645
1012.55	28.4258
1015.93	16.2909
1019.3	10.7773
1022.68	2.05994
1026.05	0.816406
1029.43	1.63403
1032.8	2.63867
1036.18	8.47363
1039.55	8.20093
1042.93	3.38525
1046.3	2.40039
1049.68	1.40698
1053.05	1.24158
1056.43	2.85571
1059.8	1.78088
1063.18	0.686157
1066.55	4.80933
1069.93	8.82312
1073.3	11.6373
1076.68	8.37756
1080.05	7.76331
1083.42	8.33813
1086.8	6.80615
1090.17	6.29761
1093.55	1.82996
1096.92	0.085693
1100.3	6.44311
1103.67	10.9774
1107.05	13.4086
1110.42	31.479
1113.8	32.902
1117.17	19.7039
1120.55	7.98279
1123.92	4.74121
1127.3	5.68579
1130.67	8.87695
1134.05	7.651
1137.42	13.3342
1140.8	18.3074
1144.17	20.2197
1147.55	21.3498
1150.92	21.4789
1154.3	14.678
1157.67	13.1847
1161.05	18.988
1164.42	20.4924
1167.8	16.7571
1171.17	11.6924
1174.55	9.82129
1177.92	7.20068
1181.3	13.5819
1184.67	17.8356
1188.05	12.9811
1191.42	3.23254
1194.79	2.66028
1198.17	4.63696
1201.54	0.568481
1204.92	1.67712
1208.29	8.12549
1211.67	17.6427
1215.04	22.6725
1218.42	31.2382
1221.79	31.9066
1225.17	28.4967
1228.54	31.8645
1231.92	25.0018
1235.29	26.4716
1238.67	25.6726
1242.04	24.9311
1245.42	31.0944
1248.79	32.6039
1252.17	42.8424
1255.54	41.26
1258.92	54.249
1262.29	66.0671
1265.67	60.6869
1269.04	58.012
1272.41	45.84
1275.79	28.7138
1279.16	19.5668
1282.54	6.80811
1285.91	1.59473
1289.29	2.39478
1292.66	0.681396
1296.04	1.5553
1299.41	1.93701
