Measurement: Raman, 780 nm, unoriented, Raman Data Processed
Mineral: Tintinaite
Rruff sample: R110163
Ideal chemistry: Pb^2+^_10_Cu^1+^_2_Sb^3+^_16_S^2-^_35_
Locality: Tintina Silver mine, Watson Lake, Yukon Territory, Canada
Source: Big piece from Royal Ontario Museum (M37320) and two smaller pieces from Mark Feinglos.
Description: Cut slab of malachite-stained weathered quartz containing massive lead-grey veinlets. Co-type material.
Raman shift (cm-1)	intensity
125.352	0
128.726	1.26435
132.101	5.13363
135.476	5.49925
138.851	5.5838
142.226	13.3
145.601	8.03727
148.975	7.12126
152.35	4.43537
155.725	0.571836
159.1	2.78205
162.475	0.785789
165.85	0.056507
169.224	1.75271
172.599	4.20655
175.974	5.76201
179.349	10.0804
182.724	2.76089
186.098	5.22547
189.473	5.73379
192.848	3.55702
196.223	4.07776
199.598	7.21023
202.972	4.74911
206.347	4.75978
209.722	1.88822
213.097	4.2704
216.472	4.53127
219.847	0.869566
223.221	3.95741
226.596	6.04439
229.971	1.25631
233.346	6.27914
236.721	7.79163
240.095	11.4728
243.47	8.91322
246.845	8.80131
250.22	4.73544
253.595	5.73369
256.969	3.14533
260.344	5.47588
263.719	5.80444
267.094	4.7637
270.469	9.37959
273.844	9.50778
277.218	10.6322
280.593	9.35788
283.968	12.0161
287.343	6.46067
290.718	0.43236
294.092	1.86683
297.467	3.06677
300.842	1.68567
304.217	6.11
307.592	3.36605
310.967	3.47532
314.341	4.41569
317.716	10.9192
321.091	15.6069
324.466	15.9742
327.841	21.2438
331.216	22.1824
334.59	14.3792
337.965	5.88976
341.34	3.29704
344.715	5.89653
348.09	2.65703
351.464	0.285905
354.839	2.86012
358.214	0.4466
361.589	1.35638
364.964	0.663648
368.339	6.48584
371.713	1.78091
375.088	3.76905
378.463	2.34689
381.838	4.59347
385.213	2.13194
388.587	2.08521
391.962	3.5093
395.337	4.83878
398.712	4.79717
402.087	4.8149
405.462	3.43467
408.836	2.36129
412.211	0.301166
415.586	1.22507
418.961	2.19781
422.336	2.19391
425.71	2.40848
429.085	3.1087
432.46	3.0381
435.835	3.59531
439.21	4.19342
442.584	5.44745
445.959	6.00831
449.334	2.87393
452.709	3.94914
456.084	5.97129
459.459	4.60097
462.833	8.96903
466.208	6.85018
469.583	7.70201
472.958	4.65133
476.333	4.57794
479.707	4.01157
483.082	3.87786
486.457	4.63973
489.832	3.26172
493.207	4.24669
496.582	2.8541
499.956	4.13466
503.331	1.38603
506.706	1.91893
510.081	1.75796
513.456	1.66172
516.83	6.48433
520.205	3.11321
523.58	2.25365
526.955	4.86346
530.33	3.01071
533.705	3.03051
537.079	2.70391
540.454	0.296081
543.829	2.11493
547.204	1.2481
550.579	2.85963
553.953	0.014394
557.328	5.402
560.703	3.03521
564.078	3.95969
567.453	1.04855
570.827	4.50071
574.202	1.599
577.577	2.71905
580.952	2.03505
584.327	2.24405
587.702	4.02816
591.076	3.37191
594.451	0.403912
597.826	1.87341
601.201	1.65362
604.576	1.33359
607.951	3.92085
611.325	1.13203
614.7	0.988045
618.075	1.40789
621.45	1.21711
624.825	1.32301
628.199	1.57278
631.574	2.8126
634.949	4.31874
638.324	0.354215
641.699	0.863238
645.073	1.39667
648.448	3.96909
651.823	2.71433
655.198	3.48945
658.573	3.08662
661.948	2.93838
665.322	3.24726
668.697	0.686054
672.072	1.04089
675.447	5.02151
678.822	2.769
682.197	4.70119
685.571	3.11374
688.946	4.60094
692.321	3.23768
695.696	6.87116
699.071	2.52641
702.445	3.97211
705.82	5.73672
709.195	5.27826
712.57	3.72965
715.945	2.52596
719.319	2.25747
722.694	5.6016
726.069	0.270936
729.444	2.35873
732.819	4.14092
736.193	5.0047
739.568	1.90597
742.943	0.319195
746.318	2.24208
749.693	1.06542
753.068	2.12006
756.442	1.84484
759.817	2.95357
763.192	1.31465
766.567	2.46249
769.942	1.82387
773.317	2.9441
776.691	2.82934
780.066	2.02042
783.441	3.20407
786.816	2.0601
790.191	1.62427
793.565	1.27297
796.94	4.03382
800.315	2.69092
803.69	1.33415
807.065	1.93382
810.439	0.945223
813.814	3.27391
817.189	1.88204
820.564	3.90586
823.939	1.61871
827.314	1.22183
830.688	2.26929
834.063	5.74977
837.438	2.97389
840.813	3.39526
844.188	2.30118
847.562	3.64373
850.937	4.17364
854.312	3.46042
857.687	3.26118
861.062	1.0335
864.437	6.52649
867.811	2.33244
871.186	4.09249
874.561	3.46353
877.936	3.31915
881.311	1.29061
884.686	1.69936
888.06	5.04131
891.435	0.376752
894.81	5.67722
898.185	1.53073
901.56	2.61526
904.934	1.75484
908.309	3.08839
911.684	0.133426
915.059	1.61718
918.434	2.62762
921.808	2.13887
925.183	2.74282
928.558	6.74069
931.933	1.79907
935.308	5.47704
938.683	4.25059
942.057	3.37394
945.432	1.53457
948.807	7.19999
952.182	5.2167
955.557	1.14966
958.932	3.46735
962.306	2.97732
965.681	4.32309
969.056	4.08917
972.431	2.76653
975.806	3.55355
979.18	2.03546
982.555	0.750993
985.93	1.68511
989.305	4.58017
992.68	2.36784
996.054	2.39816
999.429	0.868079
1002.8	1.11848
1006.18	3.03298
1009.55	2.55044
1012.93	0.770271
1016.3	1.95604
1019.68	4.50906
1023.05	0.574071
1026.43	0.173959
1029.8	3.25241
1033.18	7.40847
1036.55	1.03573
1039.93	0.045649
1043.3	5.38031
1046.68	1.66554
1050.05	4.20471
1053.43	2.91397
1056.8	2.90543
1060.18	3.37124
1063.55	2.13491
1066.93	1.13258
1070.3	2.26668
1073.67	1.50409
1077.05	3.82738
1080.42	3.15918
1083.8	3.94553
1087.17	4.71331
1090.55	0.022417
1093.92	0.503771
1097.3	3.63836
1100.67	4.32065
1104.05	3.05439
1107.42	5.75629
1110.8	1.54165
1114.17	2.69723
1117.55	1.76442
1120.92	1.89125
1124.3	3.45108
1127.67	0.571667
1131.05	1.5657
1134.42	1.85104
1137.8	3.10608
1141.17	4.07646
1144.55	1.78213
1147.92	4.37912
1151.3	4.29014
1154.67	3.1477
1158.05	4.17185
1161.42	1.22339
1164.8	3.63374
1168.17	4.07255
1171.55	3.29375
1174.92	0.549322
1178.3	0.387679
1181.67	2.9678
1185.04	4.07031
1188.42	1.96465
1191.79	1.38049
1195.17	2.63673
1198.54	2.20105
1201.92	2.78287
1205.29	4.88294
1208.67	2.38865
1212.04	1.31682
1215.42	1.71189
1218.79	2.48404
1222.17	1.0752
1225.54	1.65054
1228.92	0.683917
1232.29	0.000458
1235.67	3.81016
1239.04	2.05899
1242.42	0.681493
1245.79	1.98869
1249.17	2.66622
1252.54	3.31105
1255.91	2.34486
1259.29	1.80405
1262.66	0.984622
1266.04	1.85241
1269.41	1.19474
1272.79	2.91763
1276.16	1.3202
1279.54	4.42554
1282.91	1.53807
