Measurement: Raman, 780 nm, unoriented, Raman Data Processed
Mineral: Tintinaite
Rruff sample: R110046
Ideal chemistry: Pb^2+^_10_Cu^1+^_2_Sb^3+^_16_S^2-^_35_
Locality: Deer Park mine, Rossland, British Columbia, Canada
Source: Royal Ontario Museum
Description: Parallel aggregates of lead-gray bladed crystals associated with quartz, pyrite, magnetite, and tetrahedrite. Co-type sample
Measured chemistry: Pb_10.54_(Cu_1.24_Ag_0.28_)_Σ=1.52_(Sb_7.98_Bi_7.75_)_Σ=15.73_S_35_
Raman shift (cm-1)	intensity
179.349	0
182.242	2.01129
185.134	4.89766
188.027	2.394
190.92	1.01493
193.812	1.38315
196.705	3.84219
199.598	5.07774
202.49	4.9622
205.383	1.52816
208.276	3.13948
211.168	3.85839
214.061	0.828098
216.954	2.49684
219.847	1.61682
222.739	2.55965
225.632	7.4646
228.525	2.57265
231.417	0.618469
234.31	4.23128
237.203	5.25457
240.095	4.61214
242.988	5.73179
245.881	5.22955
248.774	5.07123
251.666	5.38717
254.559	8.47284
257.452	5.61936
260.344	5.66696
263.237	6.54829
266.13	2.87341
269.022	3.00212
271.915	6.04114
274.808	5.5028
277.701	6.32967
280.593	6.79211
283.486	6.56038
286.379	3.88188
289.271	4.01345
292.164	3.66748
295.057	4.27438
297.95	0.522296
300.842	5.31749
303.735	0.429893
306.628	2.96216
309.52	2.19228
312.413	5.88662
315.306	1.8615
318.198	0.172694
321.091	1.14797
323.984	3.61443
326.877	3.75813
329.769	1.71363
332.662	2.55636
335.555	2.52002
338.447	1.34749
341.34	3.48761
344.233	1.87884
347.125	0.352339
350.018	0.738473
352.911	2.29034
355.803	2.08305
358.696	3.25831
361.589	4.64525
364.482	5.70916
367.374	2.57325
370.267	4.61112
373.16	4.82998
376.052	4.86092
378.945	5.18107
381.838	0.651443
384.731	3.19269
387.623	4.14115
390.516	4.36852
393.409	3.14544
396.301	0.670934
399.194	5.76452
402.087	1.68631
404.979	3.27467
407.872	3.85026
410.765	2.32374
413.658	2.34399
416.55	2.55741
419.443	0.31975
422.336	2.44105
425.228	4.40991
428.121	3.04157
431.014	4.49736
433.906	3.62553
436.799	4.41967
439.692	3.09691
442.584	3.03319
445.477	5.19024
448.37	3.44356
451.263	0.41619
454.155	2.2735
457.048	2.71523
459.941	1.17864
462.833	2.03486
465.726	1.83174
468.619	4.14151
471.512	2.53638
474.404	0.998647
477.297	2.37582
480.19	1.89677
483.082	1.8012
485.975	2.96424
488.868	0.353934
491.76	0.531466
494.653	1.33505
497.546	1.27631
500.438	0.351183
503.331	1.53597
506.224	2.9266
509.117	0.627737
512.009	1.53777
514.902	0.073829
517.795	1.0517
520.687	2.41512
523.58	1.06969
526.473	2.12485
529.365	3.8831
532.258	3.17264
535.151	1.53392
538.044	1.92676
540.936	2.07884
543.829	2.03833
546.722	2.67671
549.614	1.58022
552.507	2.20276
555.4	3.24516
558.293	2.52793
561.185	1.05862
564.078	2.77098
566.971	4.0334
569.863	2.01158
572.756	3.1217
575.649	0.029612
578.541	1.89444
581.434	2.73015
584.327	2.10395
587.22	0.836811
590.112	1.16069
593.005	2.95757
595.898	1.60313
598.79	0.74183
601.683	0.336459
604.576	1.74415
607.468	3.70126
610.361	1.96952
613.254	1.3678
616.146	2.00323
619.039	1.21557
621.932	2.75069
624.825	1.98284
627.717	0.531952
630.61	0.119859
633.503	4.86945
636.395	2.22351
639.288	1.36474
642.181	2.71898
645.073	0.627823
647.966	3.06909
650.859	2.05074
653.752	1.2491
656.644	1.12249
659.537	0.138647
662.43	2.19392
665.322	2.13767
668.215	4.87022
671.108	2.10073
674	2.73637
676.893	1.82295
679.786	1.58263
682.679	1.5321
685.571	2.96994
688.464	2.3935
691.357	0.967362
694.25	5.79247
697.142	1.77894
700.035	0.973218
702.928	2.01653
705.82	2.63545
708.713	2.81416
711.606	5.08001
714.498	2.65457
717.391	0.598458
720.284	0.847965
723.177	1.54758
726.069	0.493178
728.962	1.77727
731.855	1.92744
734.747	1.9074
737.64	4.47555
740.533	3.74593
743.425	1.5019
746.318	0.545194
749.211	1.64008
752.104	3.31874
754.996	1.31792
757.889	2.84812
760.782	4.57266
763.674	2.29765
766.567	1.30976
769.46	1.52174
772.352	2.69787
775.245	1.33384
778.138	1.00869
781.03	1.66906
783.923	3.86109
786.816	4.85347
789.709	2.59008
792.601	2.27745
795.494	1.87397
798.387	2.28047
801.279	0.656533
804.172	2.42398
807.065	3.61023
809.957	3.71873
812.85	4.47568
815.743	3.61314
818.636	2.21655
821.528	2.14849
824.421	3.52544
827.314	4.95085
830.206	1.41186
833.099	1.63398
835.992	3.74222
838.885	1.82789
841.777	3.14076
844.67	0.227657
847.563	2.2912
850.455	1.18356
853.348	1.46359
856.241	2.9153
859.133	2.82456
862.026	1.42755
864.919	2.68198
867.812	0.636696
870.704	0.372647
873.597	1.32368
876.49	2.91715
879.382	0.426675
882.275	4.81759
885.168	2.83297
888.06	1.24363
890.953	1.54788
893.846	2.23257
896.739	1.25323
899.631	3.449
902.524	0.321091
905.417	1.98826
908.309	1.51083
911.202	1.90302
914.095	2.74147
916.987	2.65026
919.88	4.03435
922.773	1.99659
925.665	2.10032
928.558	1.83865
931.451	3.98139
934.344	3.40125
937.236	1.05714
940.129	2.6728
943.022	1.46926
945.914	2.31942
948.807	2.47075
951.7	1.95599
954.592	1.09291
957.485	2.29413
960.378	1.70514
963.271	3.8755
966.163	1.27192
969.056	1.52166
971.949	2.34302
974.841	2.62418
977.734	3.78807
980.627	1.15327
983.519	2.69103
986.412	3.17125
989.305	3.15177
992.198	3.59998
995.09	2.17877
997.983	3.52148
1000.88	1.61097
1003.77	3.2876
1006.66	1.15824
1009.55	3.94175
1012.45	0.827297
1015.34	3.17848
1018.23	3.72128
1021.12	3.62492
1024.02	2.56791
1026.91	1.40493
1029.8	0.915442
1032.69	1.45634
1035.59	0.790965
1038.48	1.73695
1041.37	2.74952
1044.27	4.03594
1047.16	1.74472
1050.05	4.13155
1052.94	3.81836
1055.84	0.18849
1058.73	1.56112
1061.62	2.05065
1064.52	0.472603
1067.41	2.25047
1070.3	2.37519
1073.19	0.735066
1076.09	4.42892
1078.98	3.95474
1081.87	4.22724
1084.76	3.4842
1087.66	2.12089
1090.55	0.934299
1093.44	2.49683
1096.34	3.43039
1099.23	3.59802
1102.12	0.222308
1105.01	2.24816
1107.91	2.83725
1110.8	3.65297
1113.69	2.9206
1116.58	5.53144
1119.48	4.29162
1122.37	1.53024
1125.26	0.851148
1128.15	2.39132
1131.05	2.76498
1133.94	2.104
1136.83	1.03658
1139.72	1.91195
1142.62	2.51558
1145.51	1.83753
1148.4	3.6831
1151.3	1.62778
1154.19	4.16861
1157.08	2.16495
1159.97	2.44809
1162.87	3.95765
1165.76	4.31998
1168.65	3.74156
1171.55	3.10418
1174.44	2.71604
1177.33	2.37176
1180.22	3.60267
1183.12	1.27834
1186.01	3.34202
1188.9	0.30818
1191.79	7.22618
1194.69	5.04743
1197.58	2.83976
1200.47	2.19204
1203.37	0.230389
1206.26	1.55095
1209.15	1.60052
1212.04	3.44148
1214.94	0.341386
1217.83	3.11279
1220.72	1.23672
1223.61	3.32935
1226.51	3.10933
1229.4	3.07504
1232.29	3.17672
1235.18	2.19025
1238.08	4.12745
1240.97	3.05842
1243.86	2.24878
1246.76	4.58119
1249.65	2.82682
1252.54	0.002988
1255.43	3.42521
1258.33	2.40877
1261.22	3.74293
1264.11	7.08953
1267	1.83599
1269.9	4.00641
1272.79	4.21022
1275.68	1.31923
1278.58	1.05298
1281.47	2.02933
1284.36	1.93884
