Measurement: Raman, 532 nm, unoriented, Raman Data Processed
Mineral: Tinzenite
Rruff sample: R110064
Ideal chemistry: Ca_2_Mn^2+^_4_Al_4_[B_2_Si_8_O_30_](OH)_2_
Locality: Gambatesa mine, Val Graveglia, Genova, Italy
Source: Renato & Adriana Pagano
Description: Parallel aggregates of orange platy crystals
Raman shift (cm-1)	intensity
177.755	0
180.648	11.2068
183.541	9.08221
186.433	5.21942
189.326	6.08331
192.219	16.9297
195.112	20.6503
198.004	22.3572
200.897	24.004
203.79	26.2457
206.682	22.4672
209.575	15.1892
212.468	12.827
215.36	9.39368
218.253	10.3883
221.146	6.61096
224.038	9.69336
226.931	5.13556
229.824	5.43768
232.717	8.211
235.609	4.20612
238.502	7.71045
241.395	4.88721
244.287	5.80371
247.18	0.48822
250.073	7.04303
252.965	1.56836
255.858	4.10748
258.751	10.8533
261.644	11.5712
264.536	8.19568
267.429	12.2664
270.322	15.996
273.214	18.3118
276.107	20.243
279	12.4453
281.892	10.5663
284.785	0.343994
287.678	3.42896
290.571	2.95483
293.463	6.55463
296.356	11.7711
299.249	11.3253
302.141	15.5608
305.034	20.2963
307.927	21.7094
310.82	15.3431
313.712	10.1187
316.605	11.3931
319.498	7.5918
322.39	12.5731
325.283	3.72614
328.176	2.78662
331.068	5.82306
333.961	16.3524
336.854	13.9245
339.747	15.7282
342.639	15.434
345.532	12.8108
348.425	13.2601
351.317	13.9646
354.21	11.2168
357.103	8.90759
359.995	4.78284
362.888	1.08008
365.781	1.9541
368.673	0.276489
371.566	8.69385
374.459	2.74085
377.352	5.06152
380.244	8.20801
383.137	6.4906
386.03	14.0582
388.922	15.1534
391.815	12.2897
394.708	8.62073
397.601	10.5911
400.493	12.4995
403.386	13.691
406.279	17.736
409.171	22.9661
412.064	29.486
414.957	40.7721
417.849	26.4194
420.742	14.4149
423.635	12.4259
426.527	13.3934
429.42	13.0848
432.313	8.15356
435.206	10.8147
438.098	5.82556
440.991	5.43677
443.884	4.48596
446.776	3.82324
449.669	5.80286
452.562	2.67835
455.454	2.02966
458.347	4.57629
461.24	3.1654
464.133	6.2135
467.025	0.419556
469.918	0.201172
472.811	14.3485
475.703	7.38208
478.596	16.8617
481.489	20.5442
484.382	27.2539
487.274	22.6315
490.167	5.71533
493.06	8.93835
495.952	5.89441
498.845	10.8318
501.738	6.52625
504.63	6.22375
507.523	1.53308
510.416	7.43396
513.308	1.69958
516.201	5.31043
519.094	1.93298
521.987	1.46692
524.879	7.99988
527.772	11.5837
530.665	4.34595
533.557	7.34497
536.45	2.98144
539.343	2.14331
542.236	9.85962
545.128	5.92029
548.021	9.94116
550.914	15.7788
553.806	12.1623
556.699	13.1332
559.592	16.313
562.484	12.3767
565.377	13.2957
568.27	14.249
571.163	16.4861
574.055	11.5
576.948	19.7944
579.841	22.0515
582.733	15.2871
585.626	17.6706
588.519	18.3684
591.411	24.4307
594.304	27.0439
597.197	20.6377
600.09	12.3535
602.982	9.43726
605.875	6.90479
608.768	23.2144
611.66	19.2246
614.553	20.3118
617.446	16.9441
620.338	11.2449
623.231	9.5105
626.124	3.10938
629.016	2.16699
631.909	3.72315
634.802	3.39209
637.695	8.16895
640.587	9.78247
643.48	2.0625
646.373	1.54492
649.265	6.85522
652.158	5.56445
655.051	13.3306
657.943	17.5442
660.836	27.8181
663.729	7.50952
666.622	7.65064
669.514	10.2466
672.407	13.1899
675.3	19.8306
678.192	22.6255
681.085	30.3691
683.978	31.1863
686.87	23.7217
689.763	30.1897
692.656	43.9553
695.549	36.2102
698.441	29.6401
701.334	19.1492
704.227	17.5523
707.119	33.0066
710.012	46.075
712.905	51.3264
715.798	37.9705
718.69	42.7353
721.583	33.4788
724.476	39.7996
727.368	36.9634
730.261	27.9187
733.154	25.002
736.046	8.62329
738.939	8.92358
741.832	0.706299
744.725	1.65527
747.617	4.76514
750.51	8.31177
753.403	12.7495
756.295	26.575
759.188	20.9495
762.081	13.729
764.973	12.6323
767.866	16.8926
770.759	18.6201
773.652	2.2749
776.544	11.0054
779.437	12.0088
782.33	15.6216
785.222	10.5688
788.115	7.72461
791.008	16.3774
793.9	19.2358
796.793	17.2529
799.686	2.29394
802.578	5.56006
805.471	6.32227
808.364	12.6006
811.257	10.3418
814.149	17.7627
817.042	20.9463
819.935	31.3823
822.827	25.6309
825.72	7.03467
828.613	8.17871
831.505	9.00098
834.398	6.23877
837.291	10.6362
840.184	14.02
843.076	11.71
845.969	14.4199
848.862	2.25342
851.754	4.31934
854.647	6.98144
857.54	29.4194
860.433	16.7583
863.325	18.062
866.218	7.31982
869.111	8.30859
872.003	12.6724
874.896	22.335
877.789	26.9927
880.681	25.4004
883.574	25.541
886.467	52.73
889.36	63.8081
892.252	50.2769
895.145	40.2261
898.038	29.6562
900.93	35.8154
903.823	53.5337
906.716	50.8394
909.608	59.9839
912.501	54.6387
915.394	45.938
918.287	55.5088
921.179	16.0391
924.072	15.5107
926.965	23.585
929.857	40.4365
932.75	6.00439
935.643	13.7842
938.535	3.71728
941.428	3.87988
944.321	22.6069
947.213	35.5527
950.106	41.1548
952.999	36.3662
955.892	42.6475
958.784	34.1094
961.677	33.3125
964.57	63.8481
967.462	46.3286
970.355	51.3101
973.248	34.7368
976.14	33.665
979.033	51.1836
981.926	40.2861
984.819	26.7051
987.711	49.1728
990.604	53.9522
993.497	68.2988
996.389	41.3477
999.282	20.6855
1002.17	14.332
1005.07	15.0693
1007.96	37.5869
1010.85	33.4473
1013.75	2.91992
1016.64	5.00781
1019.53	31.626
1022.42	32.2139
1025.32	16.6924
1028.21	35.8623
1031.1	15.6572
1033.99	23.2158
1036.89	43.5752
1039.78	13.6514
1042.67	4.59863
1045.57	13.9287
1048.46	14.8232
1051.35	21.5498
1054.24	47.7178
1057.14	61.1514
1060.03	35.4482
1062.92	32.2822
1065.81	45.2432
1068.71	24.3047
1071.6	42.457
1074.49	4.58691
1077.38	2.79004
1080.28	15.0225
1083.17	5.93457
1086.06	1.19824
1088.96	8.97559
1091.85	1.0166
1094.74	29.2256
1097.63	23.6621
1100.53	73.6602
1103.42	23.0928
1106.31	32.8486
1109.2	32.0967
1112.1	63.0039
1114.99	61.3145
1117.88	50.2188
1120.78	57.5391
1123.67	59.2793
1126.56	15.5684
1129.45	31.5576
1132.35	1.41504
1135.24	44.127
1138.13	56.0312
1141.02	35.668
1143.92	19.5566
1146.81	36.2295
1149.7	61.9033
1152.6	44.2744
1155.49	35.6543
1158.38	17.1953
1161.27	22.2734
1164.17	35.6826
1167.06	21.8691
1169.95	7.0791
1172.84	24.9531
1175.74	47.9248
1178.63	43.5312
1181.52	65.2148
1184.41	99.6865
1187.31	109.681
1190.2	66.7773
1193.09	100.107
1195.99	59.6719
1198.88	84.4346
1201.77	77.1914
1204.66	75.9307
1207.56	148.393
1210.45	169.02
1213.34	153.483
1216.23	107.467
1219.13	48.6895
1222.02	46.1836
1224.91	75.0527
1227.81	79.5586
1230.7	30.0469
1233.59	0.591797
1236.48	42.3496
1239.38	38.207
1242.27	59.1641
1245.16	49.123
1248.05	43.3574
1250.95	28.7656
1253.84	39.0469
1256.73	46.4023
1259.62	109.941
1262.52	148.723
1265.41	123.361
1268.3	120.82
1271.2	75.5566
1274.09	90.6387
1276.98	94.9473
1279.87	59.2578
1282.77	16.5508
1285.66	36.707
1288.55	43.6562
1291.44	71.4805
1294.34	57.8086
1297.23	8.44531
1300.12	51.1074
1303.02	0
