Measurement: Raman, 780 nm, unoriented, Raman Data Processed
Mineral: Titanite
Rruff sample: R100025
Ideal chemistry: CaTi^4+^SiO_5_
Locality: Kharan, Balochistan, Pakistan
Source: Ikram Mineralogy
Description: Bluish-gray flattened wedge-shaped crystals
Raman shift (cm-1)	intensity
92.4974	0
95.8722	123.266
99.2471	80.834
102.622	82.6954
105.997	155.816
109.371	194.998
112.746	109.765
116.121	38.8613
119.496	21.8784
122.871	19.4446
126.246	3.10986
129.62	19.2488
132.995	16.2398
136.37	21.373
139.745	83.1379
143.12	173.816
146.494	102.632
149.869	74.4749
153.244	224.091
156.619	527.334
159.994	789.652
163.369	794.329
166.743	452.047
170.118	140.285
173.493	35.3806
176.868	32.345
180.243	51.6072
183.618	76.7563
186.992	66.3232
190.367	130.139
193.742	249.417
197.117	406.113
200.492	606.958
203.866	889.452
207.241	1173.62
210.616	1372.74
213.991	1616.08
217.366	1921.88
220.74	2222.9
224.115	2433.68
227.49	2558.63
230.865	2565.52
234.24	2405.62
237.615	2136.37
240.989	1902.2
244.364	1824.81
247.739	1779.12
251.114	1639.38
254.489	1360.03
257.863	971.378
261.238	553.051
264.613	200.602
267.988	1.48511
271.363	65.3894
274.738	37.8906
278.112	108.186
281.487	318.793
284.862	635.636
288.237	919.101
291.612	1173
294.986	1356.55
298.361	1653.87
301.736	1893.61
305.111	1974.43
308.486	1941.56
311.861	1790.25
315.235	1539
318.61	1196.66
321.985	847.303
325.36	625.137
328.735	522.652
332.109	463.485
335.484	353.893
338.859	220.082
342.234	48.7981
345.609	3.35669
348.984	3.32788
352.358	30.4177
355.733	19.1108
359.108	15.7693
362.483	31.0105
365.858	37.9434
369.233	24.1472
372.607	51.0335
375.982	173.806
379.357	410.16
382.732	816.54
386.106	1476.62
389.481	2363.05
392.856	3519.92
396.231	4859.6
399.606	6205.96
402.981	7151.45
406.355	7300.7
409.73	6584.07
413.105	5399.52
416.48	4150.14
419.855	3095.76
423.229	2311.27
426.604	1671.43
429.979	1200.48
433.354	913.347
436.729	761.313
440.104	706.466
443.478	722.939
446.853	751.344
450.228	819.007
453.603	884.793
456.978	997.706
460.353	1140.38
463.727	1294.52
467.102	1342.81
470.477	1092.48
473.852	598.329
477.227	155.415
480.601	56.7139
483.976	95.9756
487.351	30.0435
490.726	98.7329
494.101	278.325
497.476	465.581
500.85	637.404
504.225	821.377
507.6	959.261
510.975	1125.11
514.35	1216.76
517.724	1249.85
521.099	1227.8
524.474	1146.58
527.849	1022.59
531.224	920.819
534.598	868.009
537.973	822.97
541.348	745.013
544.723	635.326
548.098	556.043
551.472	457.286
554.847	301.158
558.222	142.204
561.597	7.06689
564.972	88.0303
568.347	123.535
571.721	24.8306
575.096	200.059
578.471	553.608
581.846	1010.86
585.221	1581.84
588.596	2249.13
591.97	3043.09
595.345	3810.76
598.72	4605.08
602.095	5300.07
605.47	5899.88
608.845	6376.11
612.219	6821.91
615.594	7231.16
618.969	7516.53
622.344	7660.36
625.719	7647.01
629.093	7535.65
632.468	7283.26
635.843	6831.22
639.218	6185.7
642.593	5361.21
645.967	4423.55
649.342	3521.78
652.717	2779.5
656.092	2148.86
659.467	1667.9
662.842	1289.22
666.216	972.093
669.591	746.971
672.966	537.827
676.341	376.427
679.716	250.177
683.091	129.443
686.465	43.1548
689.84	4.85352
693.215	34.0498
696.59	62.709
699.965	50.5488
703.339	23.061
706.714	5.63769
710.089	66.5518
713.464	137.969
716.839	230.804
720.213	331.914
723.588	465.892
726.963	567.75
730.338	716.014
733.713	867.84
737.087	979.219
740.462	1084.36
743.837	1173.92
747.212	1216.9
750.587	1219.67
753.962	1148.63
757.336	1035.6
760.711	901.78
764.086	752.315
767.461	605.842
770.836	442.863
774.211	323.038
777.585	213.225
780.96	165.188
784.335	131.003
787.71	115.344
791.085	138.859
794.459	124.765
797.834	102.724
801.209	90.4497
804.584	60.3833
807.959	41.7505
811.333	51.4207
814.708	41.5093
818.083	49.5583
821.458	52.1382
824.833	19.9846
828.208	10.2217
831.582	38.1262
834.957	64.1226
838.332	67.9011
841.707	48.583
845.082	11.3049
848.457	90.6287
851.831	209.75
855.206	359.758
858.581	511.917
861.956	678.802
865.331	893.286
868.705	1114.01
872.08	1312.61
875.455	1458.93
878.83	1546.08
882.205	1601.89
885.58	1661
888.954	1585.39
892.329	1570.01
895.704	1526.38
899.079	1523.25
902.454	1531.94
905.828	1532.33
909.203	1540.29
912.578	1472.31
915.953	1379.75
919.328	1309.18
922.702	1177.37
926.077	1091.46
929.452	1016.03
932.827	986.858
936.202	943.36
939.577	901.658
942.951	858.178
946.326	820.183
949.701	794.431
953.076	801.858
956.451	806.942
959.825	829.226
963.2	862.558
966.575	885.709
969.95	909.451
973.325	895.115
976.699	863.635
980.074	812.448
983.449	770.369
986.824	641.918
990.199	575.109
993.574	473.697
996.948	379.007
1000.32	305.189
1003.7	235.114
1007.07	154.376
1010.45	69.6624
1013.82	9.8335
1017.2	42.437
1020.57	97.9097
1023.95	152.258
1027.32	179.452
1030.7	161.874
1034.07	190.628
1037.45	141.33
1040.82	83.6123
1044.2	29.9019
1047.57	110.728
1050.94	189.393
1054.32	334.565
1057.69	494.928
1061.07	729.697
1064.44	1010.18
1067.82	1431.53
1071.19	2124.93
1074.57	3039.77
1077.94	4364.76
1081.32	6139.11
1084.69	8356.97
1088.07	10917.5
1091.44	13559.5
1094.82	16424
1098.19	18691.4
1101.57	21009.2
1104.94	22756.6
1108.32	24213.8
1111.69	24967.3
1115.07	25109.8
1118.44	24825.1
1121.82	24137.2
1125.19	23019.7
1128.57	21484
1131.94	19586.5
1135.32	17690.8
1138.69	15562.9
1142.07	13419.5
1145.44	11353.1
1148.82	9450.21
1152.19	7702.95
1155.57	6218.14
1158.94	4957.48
1162.31	3993.4
1165.69	3135.1
1169.06	2515.13
1172.44	1986.21
1175.81	1637.64
1179.19	1318.93
1182.56	1070.85
1185.94	877.188
1189.31	726.597
1192.69	620.548
1196.06	458.978
1199.44	330.237
1202.81	225.743
1206.19	162.8
1209.56	43.5332
1212.94	35.8965
1216.31	108.961
1219.69	169.574
1223.06	223.25
1226.44	140.789
1229.81	217.25
1233.19	58.4038
1236.56	162.674
1239.93	345.152
1243.31	568.237
1246.68	810.225
1250.06	1041.69
1253.43	1202.2
1256.81	1125.86
1260.18	870.843
1263.56	773.771
1266.93	664.382
1270.31	484.641
1273.68	371.639
1277.06	259.622
1280.43	110.258
1283.81	15.419
