Measurement: Raman, 532 nm, unoriented, Raman Data Processed
Mineral: Titanite
Rruff sample: R050472
Ideal chemistry: CaTi^4+^SiO_5_
Locality: Turner's Island, Lake Clear, Wadawaska, Ontario, Canada
Source: California Institute of Technology
Description: Brown flattened wedge-shaped crystal
Measured chemistry: (Ca_0.99_Na_0.01_)(Ti_0.81_Al_0.09_Fe^3+^_0.07_Nb_0.03_)Si_1.00_O_4_(O_0.80_F_0.20_)
Raman shift (cm-1)	intensity
151.755	0
154.647	9.30212
157.54	13.7794
160.433	29.7416
163.325	37.8625
166.218	39.8848
169.111	44.0106
172.003	35.6308
174.896	21.8135
177.789	15.4073
180.681	0.037292
183.574	4.66003
186.467	10.8415
189.36	10.6187
192.252	1.81201
195.145	0.476074
198.038	10.0461
200.93	22.7092
203.823	39.9508
206.716	52.3233
209.608	70.4051
212.501	91.5074
215.394	129.104
218.287	191.794
221.179	232.236
224.072	290.688
226.965	360.803
229.857	421.835
232.75	485.725
235.643	501.28
238.536	490.259
241.428	472.791
244.321	459.427
247.214	451.019
250.106	425.078
252.999	389.861
255.892	334.396
258.784	266.189
261.677	199.374
264.57	143.399
267.462	92.9831
270.355	56.0377
273.248	36.1302
276.141	22.5937
279.033	26.1518
281.926	53.846
284.819	93.6175
287.711	142.083
290.604	180.6
293.497	206.577
296.389	221.02
299.282	249.637
302.175	279.863
305.068	323.184
307.96	363.195
310.853	405.38
313.746	444.388
316.638	463.142
319.531	464.148
322.424	443.795
325.317	433.478
328.209	438.869
331.102	444.147
333.995	458.455
336.887	470.564
339.78	472.696
342.673	488.138
345.565	486.753
348.458	464.638
351.351	408.05
354.243	318.706
357.136	240.792
360.029	165.005
362.922	108.811
365.814	60.2463
368.707	27.6366
371.6	5.64813
374.492	17.851
377.385	17.6087
380.278	14.7125
383.171	10.5534
386.063	4.74896
388.956	1.31128
391.849	13.5798
394.741	31.0635
397.634	42.3427
400.527	68.0419
403.419	92.4056
406.312	130.818
409.205	169.832
412.098	206.978
414.99	247.169
417.883	278.483
420.776	277.338
423.668	260.755
426.561	230.718
429.454	195.429
432.346	163.856
435.239	135.297
438.132	113.709
441.024	99.3991
443.917	93.444
446.81	88.3161
449.703	86.3696
452.595	89.9842
455.488	99.0079
458.381	110.532
461.273	123.087
464.166	133.686
467.059	144.856
469.952	154.352
472.844	160.719
475.737	162.241
478.63	165.805
481.522	164.254
484.415	158.302
487.308	142.482
490.2	124.212
493.093	96.1802
495.986	73.7236
498.878	43.3304
501.771	19.6913
504.664	1.85284
507.557	8.73737
510.449	13.2943
513.342	17.8311
516.235	17.3183
519.127	4.54468
522.02	16.4773
524.913	45.259
527.806	78.4731
530.698	113.019
533.591	138.317
536.484	158.355
539.376	157.763
542.269	144.767
545.162	130.528
548.054	115.492
550.947	118.329
553.84	133.615
556.732	164.441
559.625	205.337
562.518	259.399
565.411	312.933
568.303	355.496
571.196	360.944
574.089	333.075
576.981	289.552
579.874	235.169
582.767	204.439
585.659	173.167
588.552	152.912
591.445	136.006
594.338	124.836
597.23	112.578
600.123	114.52
603.016	114.301
605.908	121.409
608.801	122.828
611.694	123.066
614.587	119.54
617.479	109.722
620.372	98.5695
623.265	96.8888
626.157	92.0962
629.05	90.3434
631.943	88.9934
634.835	87.3162
637.728	84.9428
640.621	80.8977
643.514	77.2531
646.406	72.9271
649.299	73.9904
652.192	72.5161
655.084	73.3871
657.977	68.9653
660.87	61.6005
663.762	52.9102
666.655	44.6558
669.548	37.699
672.441	30.226
675.333	21.5528
678.226	17.6243
681.119	8.91119
684.011	1.56488
686.904	3.18732
689.797	4.01038
692.689	5.42798
695.582	0.859619
698.475	2.21826
701.367	5.4057
704.26	9.46161
707.153	5.25073
710.046	2.74383
712.938	2.6723
715.831	0.71051
718.724	2.64215
721.616	1.89404
724.509	1.64154
727.402	1.09515
730.294	4.25812
733.187	0.538208
736.08	3.17023
738.973	4.48389
741.865	1.30823
744.758	5.81354
747.651	10.0159
750.543	11.7147
753.436	14.1133
756.329	16.1613
759.221	10.273
762.114	5.47333
765.007	6.1925
767.9	13.0726
770.792	21.3359
773.685	38.0397
776.578	56.8663
779.47	68.9398
782.363	81.4525
785.256	96.5902
788.149	105.549
791.041	112.809
793.934	113.278
796.827	118.483
799.719	111.575
802.612	114.653
805.505	122.099
808.397	124.637
811.29	140.171
814.183	156.123
817.076	173.982
819.968	202.292
822.861	230.214
825.754	259.916
828.646	296.397
831.539	325.027
834.432	365.754
837.324	411.757
840.217	463.793
843.11	510.486
846.003	549.967
848.895	582.442
851.788	606.229
854.681	617.109
857.573	606.976
860.466	597.044
863.359	575.235
866.251	550.854
869.144	529.676
872.037	488.351
874.929	445.6
877.822	386.152
880.715	331.63
883.608	278.402
886.5	230.541
889.393	202.467
892.286	175.105
895.178	151.025
898.071	143.132
900.964	141.517
903.856	144.116
906.749	145.796
909.642	148.72
912.535	139.932
915.427	117.92
918.32	92.4535
921.213	64.4667
924.105	34.2113
926.998	13.3632
929.891	0.328217
932.784	11.7671
935.676	14.3753
938.569	14.7765
941.462	11.3433
944.354	11.4481
947.247	4.57513
950.14	0.619659
953.032	9.23157
955.925	17.1787
958.818	28.9108
961.711	37.6594
964.603	44.1387
967.496	54.2876
970.389	64.7775
973.281	74.1482
976.174	84.0221
979.067	91.9191
981.959	101.861
984.852	110.022
987.745	114.927
990.638	120.11
993.53	118.577
996.423	120.249
999.316	116.612
1002.21	118.255
1005.1	121.759
1007.99	121.617
1010.89	125.954
1013.78	121.856
1016.67	119.988
1019.57	110.289
1022.46	101.091
1025.35	81.7246
1028.24	63.6121
1031.13	50.24
1034.03	34.2991
1036.92	25.9519
1039.81	15.0569
1042.71	12.0753
1045.6	6.79329
1048.49	3.37624
1051.38	3.19817
1054.28	3.26503
1057.17	2.99551
1060.06	3.53638
1062.95	3.27014
1065.85	3.79901
1068.74	2.4809
1071.63	1.37956
1074.53	1.67244
1077.42	2.3385
1080.31	1.72249
1083.2	2.15637
1086.1	0.78833
1088.99	0.738678
1091.88	1.55103
1094.78	0.870071
1097.67	0.113586
1100.56	0.332153
1103.45	0.955856
1106.35	1.41133
1109.24	0.245468
1112.13	0.251511
1115.02	2.56532
1117.92	3.09584
1120.81	1.91142
1123.7	1.83212
1126.59	2.47821
1129.49	2.754
1132.38	5.18904
1135.27	5.51909
1138.16	4.90289
1141.06	5.06474
1143.95	3.58319
1146.84	4.59338
1149.74	4.22375
1152.63	2.86743
1155.52	4.49016
1158.41	3.65439
1161.31	4.01497
1164.2	2.97081
1167.09	4.37323
1169.98	4.43152
1172.88	3.22389
1175.77	2.34077
1178.66	1.66832
1181.56	4.36766
1184.45	2.78737
1187.34	3.45778
1190.23	2.2159
1193.13	2.15073
1196.02	1.25561
1198.91	1.87262
1201.81	1.66949
1204.7	1.02963
1207.59	0.336075
1210.48	0.125519
1213.38	2.64279
1216.27	1.11275
1219.16	2.09167
1222.05	0.648041
1224.95	0.10022
1227.84	0.350296
1230.73	0.032471
1233.62	0.936417
1236.52	0.069077
1239.41	0.333405
1242.3	1.36731
1245.19	0.001694
1248.09	2.04306
1250.98	0.756805
1253.87	1.94554
1256.77	0.963074
1259.66	0.230392
1262.55	1.15067
1265.44	0.459442
1268.34	1.34784
1271.23	3.21622
1274.12	2.47313
1277.02	2.89046
1279.91	2.47513
1282.8	0.684998
