Measurement: Raman, 532 nm, unoriented, Raman Data Processed
Mineral: Tolovkite
Rruff sample: R070110
Ideal chemistry: IrSbS
Locality: placer from Ust-Belsky Massif, Korjak Highand, Russia
Source: Michael Scott
Description: Dark gray metallic crystal embedded in epoxy
Raman shift (cm-1)	intensity
160.306	0
163.199	15.2091
166.092	6.651
168.984	25.6782
171.877	87.0297
174.77	50.8011
177.662	41.7042
180.555	31.6166
183.448	8.97626
186.341	27.1679
189.233	32.2476
192.126	3.77991
195.019	24.3007
197.911	28.7932
200.804	30.5994
203.697	41.4849
206.589	46.162
209.482	39.0747
212.375	60.1002
215.268	42.7196
218.16	23.2599
221.053	36.1885
223.946	84.3203
226.838	19.8817
229.731	54.1935
232.624	35.9228
235.516	21.4556
238.409	27.5155
241.302	64.1095
244.195	48.9062
247.087	16.7786
249.98	21.1769
252.873	27.3535
255.765	30.8852
258.658	24.26
261.551	8.66748
264.443	11.6834
267.336	26.9807
270.229	8.46899
273.122	16.1339
276.014	5.30237
278.907	23.1638
281.8	14.8472
284.692	13.6061
287.585	13.4104
290.478	20.7242
293.37	35.0786
296.263	18.2806
299.156	28.7927
302.048	25.0282
304.941	38.6627
307.834	41.3706
310.727	81.1129
313.619	48.0052
316.512	52.1139
319.405	39.279
322.297	53.2185
325.19	69.5194
328.083	69.1096
330.975	49.2147
333.868	27.863
336.761	33.1791
339.654	49.5817
342.546	58.2036
345.439	76.4518
348.332	51.1536
351.224	52.1023
354.117	52.1096
357.01	53.6437
359.902	51.7789
362.795	41.2622
365.688	114.442
368.58	96.8729
371.473	76.3516
374.366	98.4203
377.259	65.6587
380.151	59.2909
383.044	64.6257
385.937	37.6545
388.829	27.9558
391.722	34.631
394.615	1.61877
397.507	7.32397
400.4	12.8136
403.293	28.8524
406.185	53.6045
409.078	28.5333
411.971	10.0459
414.864	7.13843
417.756	8.45569
420.649	8.27783
423.542	41.6492
426.434	36.1343
429.327	33.7867
432.22	45.1671
435.113	21.403
438.005	42.7512
440.898	46.197
443.791	14.2947
446.683	20.9518
449.576	39.154
452.469	12.6366
455.361	47.3933
458.254	0.203857
461.147	23.1505
464.039	7.35205
466.932	12.1786
469.825	37.92
472.718	46.5815
475.61	10.8656
478.503	38.581
481.396	31.2423
484.288	49.596
487.181	14.5382
490.074	24.686
492.966	23.8101
495.859	27.4983
498.752	7.36523
501.645	24.7465
504.537	23.4865
507.43	19.9198
510.323	2.16748
513.215	35.1614
516.108	18.2033
519.001	56.2172
521.893	6.96411
524.786	3.62439
527.679	17.0306
530.572	47.339
533.464	46.1296
536.357	29.1362
539.25	9.3783
542.142	36.9145
545.035	21.0133
547.928	39.3547
550.82	27.4189
553.713	57.9917
556.606	36.9889
559.499	37.8638
562.391	20.0431
565.284	26.2146
568.177	63.0089
571.069	14.0676
573.962	37.1138
576.855	13.5537
579.747	33.9126
582.64	34.8145
585.533	0.967163
588.426	0.64624
591.318	12.6509
594.211	18.0786
597.104	7.08008
599.996	13.552
602.889	16.0612
605.782	10.0386
608.674	24.4179
611.567	6.11267
614.46	14.0935
617.352	9.15369
620.245	2.83948
623.138	5.45593
626.03	17.9003
628.923	23.9439
631.816	8.98047
634.709	46.9922
637.601	23.1382
640.494	4.84265
643.387	27.9559
646.279	25.1589
649.172	21.4901
652.065	11.8146
654.957	39.2009
657.85	19.4838
660.743	53.4734
663.636	6.86206
666.528	41.5429
669.421	46.9988
672.314	55.4464
675.206	47.0944
678.099	16.616
680.992	50.469
683.885	54.9961
686.777	64.1713
689.67	53.1892
692.563	53.1965
695.455	35.3729
698.348	93.1666
701.241	68.8301
704.133	86.3801
707.026	68.8514
709.919	70.991
712.811	35.3694
715.704	47.9487
718.597	114.788
721.49	92.2681
724.382	80.5102
727.275	42.0743
730.168	74.6036
733.06	51.6769
735.953	68.4436
738.846	60.6128
741.738	63.8557
744.631	54.2249
747.524	57.9633
750.417	54.471
753.309	31.4363
756.202	21.9712
759.095	33.4113
761.987	39.5262
764.88	39.7891
767.773	29.8975
770.665	4.20276
773.558	34.0903
776.451	21.8942
779.343	20.8684
782.236	27.5604
785.129	23.118
788.021	22.0903
790.914	11.183
793.807	2.81616
796.7	33.8625
799.592	1.86377
802.485	33.5418
805.378	0.70105
808.27	15.9797
811.163	15.2916
814.056	4.11633
816.948	0.941284
819.841	7.11304
822.734	4.26233
825.627	53.7283
828.519	16.9301
831.412	3.49683
834.305	22.9818
837.197	4.71863
840.09	45.5774
842.983	14.4685
845.875	38.1166
848.768	14.3458
851.661	28.7405
854.554	28.5911
857.446	14.7508
860.339	30.2207
863.232	42.0107
866.124	33.2599
869.017	34.9574
871.91	6.64612
874.802	9.22607
877.695	40.4863
880.588	12.0038
883.481	16.5571
886.373	0.406372
889.266	24.3394
892.159	25.8286
895.051	9.20691
897.944	11.7451
900.837	8.13184
903.729	23.2358
906.622	24.2966
909.515	13.5648
912.408	4.25269
915.3	4.62524
918.193	19.0286
921.086	20.9355
923.978	0.57605
926.871	11.5915
929.764	25.8082
932.656	18.7479
935.549	20.1515
938.442	35.515
941.335	27.9556
944.227	1.04871
947.12	9.76977
950.013	19.5433
952.905	22.229
955.798	24.6688
958.691	47.3063
961.583	44.1514
964.476	41.1378
967.369	25.6213
970.261	38.7455
973.154	42.0558
976.047	12.0909
978.939	34.9517
981.832	25.6909
984.725	22.3556
987.618	60.5571
990.51	4.34595
993.403	24.8195
996.296	37.3591
999.188	21.6186
1002.08	30.4615
1004.97	6.76135
1007.87	6.53235
1010.76	35.6047
1013.65	18.2809
1016.54	36.4603
1019.44	32.1941
1022.33	41.0801
1025.22	47.313
1028.12	15.5126
1031.01	16.3182
1033.9	42.2927
1036.79	69.8959
1039.69	8.6991
1042.58	12.2153
1045.47	9.4978
1048.36	31.9793
1051.26	59.589
1054.15	28.0101
1057.04	39.0001
1059.93	33.1649
1062.83	0.016357
1065.72	27.6574
1068.61	19.0732
1071.51	29.3497
1074.4	36.2925
1077.29	24.266
1080.18	23.0851
1083.08	7.23022
1085.97	28.8503
1088.86	23.5558
1091.76	8.34741
1094.65	29.053
1097.54	1.07593
1100.43	15.4221
1103.33	0.17749
1106.22	56.7482
1109.11	35.2056
1112	12.8909
1114.9	27.3141
1117.79	44.007
1120.68	30.1001
1123.57	12.7918
1126.47	7.07739
1129.36	2.94971
1132.25	56.1746
1135.14	24.1714
1138.04	9.79224
1140.93	30.2959
1143.82	8.13232
1146.72	26.5193
1149.61	4.90649
1152.5	35.7224
1155.39	31.7664
1158.29	14.8145
1161.18	73.9929
1164.07	30.7461
1166.96	6.78003
1169.86	53.8023
1172.75	38.1384
1175.64	26.9482
1178.54	3.8081
1181.43	25.0286
1184.32	53.6211
1187.21	47.4038
1190.11	30.7446
1193	10.5295
1195.89	11.0706
1198.78	2.78638
1201.68	36.2173
1204.57	32.0962
1207.46	15.7415
1210.36	36.449
1213.25	14.603
1216.14	34.2803
1219.03	46.8545
1221.93	42.509
1224.82	60.4263
1227.71	35.5134
1230.6	37.842
1233.5	1.76562
1236.39	38.9685
1239.28	41.6873
1242.17	44.8132
1245.07	9.3501
1247.96	48.0623
1250.85	25.866
1253.75	34.3774
1256.64	30.5588
1259.53	7.50317
1262.42	15.5996
1265.32	42.6858
1268.21	0
