Measurement: Raman, 785 nm, unoriented, Raman Data Processed
Mineral: Tolovkite
Rruff sample: R070110
Ideal chemistry: IrSbS
Locality: placer from Ust-Belsky Massif, Korjak Highand, Russia
Source: Michael Scott
Description: Dark gray metallic crystal embedded in epoxy
Raman shift (cm-1)	intensity
152.648	0
155.54	523.522
158.433	11.6846
161.326	313.333
164.218	499.509
167.111	442.05
170.004	490.758
172.897	568.713
175.789	484.72
178.682	296.273
181.575	260.793
184.467	154.732
187.36	44.0835
190.253	55.5415
193.145	8.3562
196.038	29.832
198.931	85.6152
201.823	17.2144
204.716	76.3518
207.609	80.6609
210.502	99.4133
213.394	35.1956
216.287	78.2251
219.18	104.409
222.072	102.811
224.965	146.895
227.858	103.725
230.75	129.058
233.643	119.348
236.536	137.098
239.429	138.817
242.321	179.052
245.214	125.412
248.107	107.423
250.999	123.643
253.892	102.968
256.785	117.587
259.678	80.5523
262.57	79.5396
265.463	14.5378
268.356	7.90015
271.248	9.49854
274.141	30.366
277.034	26.009
279.926	2.36255
282.819	14.6628
285.712	10.5295
288.604	57.6133
291.497	75.8533
294.39	69.8169
297.283	93.7705
300.175	145.045
303.068	196.718
305.961	212.263
308.853	261.547
311.746	310.517
314.639	381.399
317.531	359.325
320.424	358.851
323.317	410.552
326.21	365.498
329.102	382.013
331.995	391.771
334.888	437.387
337.78	494.866
340.673	544.266
343.566	570.512
346.459	667.682
349.351	697.872
352.244	720.52
355.137	619.734
358.029	374.498
360.922	403.816
363.815	378.811
366.707	422.084
369.6	483.628
372.493	477.123
375.385	415.1
378.278	273.52
381.171	147.713
384.064	95.7593
386.956	46.5073
389.849	52.3401
392.742	14.053
395.634	27.3625
398.527	5.81201
401.42	43.6963
404.312	49.6213
407.205	23.4668
410.098	12.458
412.99	30.6931
415.883	57.3982
418.776	44.6636
421.669	31.6487
424.561	10.8062
427.454	26.7293
430.347	39.6865
433.239	6.33545
436.132	7.2085
439.025	31.1946
441.918	15.5264
444.81	13.9363
447.703	17.0433
450.596	11.7419
453.488	36.3641
456.381	35.3197
459.274	10.3965
462.166	84.5326
465.059	28.316
467.952	0.249146
470.844	41.1354
473.737	9.07007
476.63	31.5465
479.523	32.2824
482.415	37.5574
485.308	34.5182
488.201	25.1342
491.093	28.7041
493.986	56.7423
496.879	36.1268
499.772	17.0934
502.664	35.0656
505.557	23.9485
508.45	62.3922
511.342	51.1324
514.235	43.0934
517.128	49.8712
520.02	37.2904
522.913	6.67114
525.806	40.2801
528.698	43.3049
531.591	23.6303
534.484	44.0922
537.377	2.03406
540.269	37.2753
543.162	33.2039
546.055	35.3684
548.947	24.403
551.84	0.416626
554.733	59.1748
557.625	33.7071
560.518	52.4194
563.411	37.1936
566.304	28.9973
569.196	53.4626
572.089	20.6201
574.982	24.0393
577.874	27.6721
580.767	54.9301
583.66	30.5387
586.553	14.3467
589.445	26.8945
592.338	15.2985
595.231	28.4482
598.123	28.7958
601.016	33.7394
603.909	3.55396
606.801	12.7744
609.694	7.98401
612.587	7.64966
615.48	42.8722
618.372	9.45129
621.265	14.9604
624.158	25.339
627.05	37.0147
629.943	41.1877
632.836	25.3767
635.728	13.165
638.621	26.5482
641.514	60.0587
644.407	42.4525
647.299	79.6209
650.192	26.4655
653.085	22.7295
655.977	33.6597
658.87	59.1003
661.763	54.743
664.655	39.2805
667.548	57.1149
670.441	40.6599
673.333	45.1029
676.226	45.6198
679.119	57.5946
682.012	48.1857
684.904	64.1124
687.797	70.358
690.69	97.1849
693.582	88.8463
696.475	60.0072
699.368	75.0416
702.26	89.7091
705.153	67.7866
708.046	66.5909
710.939	58.8112
713.831	24.8165
716.724	93.5181
719.617	87.9799
722.509	82.959
725.402	91.3897
728.295	102.007
731.188	95.4683
734.08	69.6375
736.973	93.2502
739.866	43.4105
742.758	45.688
745.651	72.7089
748.544	58.3978
751.436	32.6901
754.329	33.3903
757.222	59.4517
760.114	51.3124
763.007	8.29663
765.9	11.4517
768.793	11.6954
771.685	25.5356
774.578	19.369
777.471	19.8916
780.363	4.63769
783.256	37.6191
786.149	33.6372
789.041	39.1565
791.934	28.0865
794.827	36.2758
797.72	31.8256
800.612	2.42041
803.505	7.2605
806.398	0.645264
809.29	11.5931
812.183	10.9727
815.076	12.3352
817.968	19.6639
820.861	0.768066
823.754	4.45288
826.646	11.9017
829.539	43.8878
832.432	5.53345
835.325	21.4989
838.217	18.502
841.11	20.7743
844.003	44.4185
846.895	7.12293
849.788	31.4901
852.681	45.8751
855.573	48.033
858.466	19.9473
861.359	33.9176
864.252	59.3937
867.144	69.1108
870.037	20.0796
872.93	62.13
875.822	30.1293
878.715	26.0668
881.608	53.2909
884.5	15.7231
887.393	37.4138
890.286	36.9423
893.179	25.8061
896.071	18.2604
898.964	1.92224
901.857	3.56665
904.75	27.1267
907.642	43.8959
910.535	28.1119
913.428	19.4064
916.32	25.498
919.213	8.6532
922.106	9.70618
924.998	45.9867
927.891	9.328
930.784	23.6191
933.677	37.2987
936.569	41.6454
939.462	13.6808
942.355	1.86841
945.247	24.4724
948.14	40.0638
951.033	18.2523
953.925	0.369385
956.818	48.3835
959.711	4.06055
962.603	43.8406
965.496	11.8464
968.389	35.498
971.282	26.5128
974.174	18.5814
977.067	42.8386
979.96	33.2633
982.852	25.9322
985.745	55.9843
988.638	35.3469
991.53	24.3136
994.423	5.43408
997.316	22.2958
1000.21	41.392
1003.1	9.41626
1005.99	42.7422
1008.89	24.6771
1011.78	35.0305
1014.67	5.82739
1017.57	22.3789
1020.46	35.6644
1023.35	69.3487
1026.24	3.39783
1029.13	24.4893
1032.03	26.3009
1034.92	44.7369
1037.81	7.36523
1040.71	19.8013
1043.6	35.6548
1046.49	67.7069
1049.38	37.1099
1052.28	45.6529
1055.17	39.9277
1058.06	47.5797
1060.95	25.9456
1063.85	51.4939
1066.74	30.7808
1069.63	26.6421
1072.53	52.0525
1075.42	64.4136
1078.31	26.7433
1081.2	13.5515
1084.1	27.5452
1086.99	58.335
1089.88	5.66772
1092.78	5.78528
1095.67	47.1187
1098.56	14.7133
1101.45	21.2872
1104.35	14.0645
1107.24	39.4512
1110.13	55.0404
1113.02	25.097
1115.92	18.1017
1118.81	36.9838
1121.7	18.3505
1124.6	29.7523
1127.49	11.6934
1130.38	26.7057
1133.27	26.37
1136.16	43.1136
1139.06	5.35168
1141.95	25.01
1144.84	33.973
1147.74	21.9709
1150.63	12.4852
1153.52	26.4656
1156.41	45.3898
1159.31	28.8257
1162.2	46.3457
1165.09	59.7026
1167.98	22.5093
1170.88	12.1409
1173.77	7.16894
1176.66	49.2251
1179.56	39.8801
1182.45	61.1343
1185.34	58.051
1188.23	53.4858
1191.13	48.1555
1194.02	42.9902
1196.91	1.73071
1199.81	33.7781
1202.7	24.4961
1205.59	19.7134
1208.48	39.2888
1211.38	44.8867
1214.27	49.7561
1217.16	16.5879
1220.05	13.6638
