Measurement: Raman, 780 nm, unoriented, Raman Data Processed
Mineral: Tomichite
Rruff sample: R070685
Ideal chemistry: V^3+^_4_Ti^4+^_3_As^3+^O_13_(OH)
Locality: Hemlo mines, Hemlo gold deposit, Marathon, Thunder Bay District, Ontario, Canada
Source: Michael Scott
Description: Black massive
Raman shift (cm-1)	intensity
202.41	0
205.303	17.8872
208.196	28.9824
211.088	5.30945
213.981	9.95093
216.874	27.3959
219.766	35.5536
222.659	52.3588
225.552	14.2133
228.444	34.8798
231.337	43.8785
234.23	42.8024
237.123	7.89697
240.015	38.2731
242.908	37.0842
245.801	33.1851
248.693	24.2537
251.586	16.4889
254.479	3.89648
257.371	47.5021
260.264	4.26538
263.157	37.471
266.05	39.6987
268.942	75.3981
271.835	79.9615
274.728	99.6152
277.62	118.125
280.513	122.52
283.406	109.095
286.298	134.795
289.191	150.769
292.084	163.383
294.976	116.814
297.869	97.2158
300.762	83.9197
303.655	58.3987
306.547	41.7717
309.44	45.9142
312.333	12.1107
315.225	44.9166
318.118	24.1059
321.011	7.15839
323.904	33.1887
326.796	14.7175
329.689	1.23816
332.582	3.00543
335.474	25.9079
338.367	6.32758
341.26	27.1019
344.152	20.2029
347.045	18.6158
349.938	2.5896
352.83	41.394
355.723	35.1896
358.616	31.5419
361.509	28.1513
364.401	8.44665
367.294	19.6032
370.187	34.2037
373.079	37.6775
375.972	37.8622
378.865	50.4901
381.758	35.3936
384.65	33.4952
387.543	47.3881
390.436	31.2944
393.328	33.9923
396.221	44.7259
399.114	52.9843
402.007	36.8759
404.899	2.70508
407.792	27.1337
410.685	15.6439
413.577	56.1683
416.47	16.5398
419.363	37.677
422.255	63.3812
425.148	39.8605
428.041	34.8441
430.933	44.551
433.826	36.3334
436.719	38.5181
439.612	4.55829
442.504	37.732
445.397	12.9304
448.29	47.0123
451.182	36.1242
454.075	10.2091
456.968	13.3877
459.861	14.4133
462.753	16.8077
465.646	13.0316
468.539	41.7543
471.431	35.9352
474.324	14.7303
477.217	23.2255
480.109	10.4495
483.002	38.4236
485.895	36.0817
488.788	4.63989
491.68	35.6203
494.573	41.3221
497.466	10.9927
500.358	24.1223
503.251	25.1321
506.144	20.7105
509.036	11.7246
511.929	39.8313
514.822	20.2054
517.715	10.0422
520.607	34.1833
523.5	21.0485
526.393	46.3361
529.285	25.0088
532.178	36.7567
535.071	45.2253
537.963	66.3017
540.856	35.7565
543.749	28.3078
546.641	53.3461
549.534	30.7148
552.427	27.1551
555.32	28.6664
558.212	55.4388
561.105	24.5121
563.998	5.22351
566.89	23.2051
569.783	33.8514
572.676	45.1566
575.568	10.0119
578.461	4.10065
581.354	15.2169
584.247	14.3968
587.139	15.7799
590.032	19.8128
592.925	22.9732
595.817	26.6326
598.71	46.4023
601.603	11.1426
604.495	26.6166
607.388	6.80707
610.281	49.6913
613.174	58.1313
616.066	36.5205
618.959	34.5354
621.852	48.0862
624.744	45.1761
627.637	38.892
630.53	46.4959
633.423	24.3077
636.315	48.8888
639.208	47.1855
642.101	34.9153
644.993	32.367
647.886	38.1255
650.779	36.6239
653.671	0.991516
656.564	10.7948
659.457	33.1094
662.35	15.8996
665.242	33.8295
668.135	19.1392
671.028	19.1717
673.92	22.1437
676.813	29.9564
679.706	21.1678
682.598	30.8383
685.491	10.3872
688.384	18.6236
691.277	0.804382
694.169	11.3683
697.062	18.7882
699.955	26.9714
702.847	43.5142
705.74	30.4011
708.633	36.3017
711.525	32.95
714.418	26.9341
717.311	52.2236
720.204	18.4746
723.096	43.6924
725.989	39.668
728.882	31.6276
731.774	28.7256
734.667	63.1967
737.56	45.044
740.452	26.715
743.345	41.5881
746.238	53.6771
749.131	45.6212
752.023	52.1028
754.916	64.8577
757.809	38.8661
760.701	51.2578
763.594	41.6233
766.487	38.6517
769.38	59.6916
772.272	55.5264
775.165	30.5023
778.058	59.0512
780.95	41.8066
783.843	44.1225
786.736	44.0612
789.628	50.4838
792.521	44.7126
795.414	57.6824
798.307	39.7364
801.199	42.4351
804.092	23.8787
806.985	32.0229
809.877	0.385193
812.77	4.56018
815.663	10.9388
818.555	10.785
821.448	11.6082
824.341	9.70508
827.234	5.53198
830.126	13.5561
833.019	5.16388
835.912	24.4908
838.804	15.5339
841.697	23.3555
844.59	34.1795
847.482	38.354
850.375	13.1443
853.268	6.04285
856.161	17.7751
859.053	3.11267
861.946	4.06622
864.839	24.6012
867.731	28.9882
870.624	30.6863
873.517	35.5149
876.409	24.3774
879.302	44.6156
882.195	52.3813
885.088	37.3714
887.98	10.3117
890.873	20.4906
893.766	10.1482
896.658	20.3211
899.551	46.583
902.444	15.9498
905.337	58.3105
908.229	21.665
911.122	16.388
914.015	22.395
916.907	21.058
919.8	43.2154
922.693	20.4345
925.585	23.5165
928.478	35.9349
931.371	12.957
934.264	43.8578
937.156	8.17099
940.049	51.1013
942.942	33.0112
945.834	31.6143
948.727	9.61011
951.62	42.6117
954.512	5.95599
957.405	17.7158
960.298	29.2106
963.191	25.3674
966.083	2.83106
968.976	4.30518
971.869	17.6717
974.761	22.6233
977.654	25.506
980.547	21.1863
983.439	17.8015
986.332	10.8749
989.225	13.5331
992.118	10.5999
995.01	1.87622
997.903	6.52356
1000.8	28.4262
1003.69	21.7212
1006.58	10.3649
1009.47	31.6155
1012.37	4.09955
1015.26	21.5456
1018.15	4.84967
1021.04	25.4169
1023.94	38.8475
1026.83	5.25098
1029.72	29.0389
1032.62	15.2793
1035.51	1.93085
1038.4	28.0497
1041.29	13.1807
1044.19	12.6699
1047.08	35.3035
1049.97	11.6667
1052.86	7.85712
1055.76	19.5321
1058.65	30.0393
1061.54	31.9153
1064.43	20.5004
1067.33	35.8027
1070.22	12.1243
1073.11	22.1189
1076.01	7.41867
1078.9	4.21732
1081.79	4.42795
1084.68	16.8982
1087.58	0.932312
1090.47	1.35507
1093.36	23.2716
1096.26	25.8332
1099.15	14.0454
1102.04	28.6496
1104.93	14.6435
1107.83	31.558
1110.72	22.8422
1113.61	14.4
1116.5	0.639099
1119.4	4.68585
1122.29	20.8941
1125.18	6.05725
1128.07	12.8331
1130.97	28.8632
1133.86	9.7301
1136.75	9.86282
1139.64	16.243
1142.54	25.1958
1145.43	12.9886
1148.32	0.734222
1151.22	1.04315
1154.11	9.44269
1157	11.1623
1159.89	1.29025
1162.79	22.2917
1165.68	25.2819
1168.57	0.690765
1171.46	25.951
1174.36	7.57001
1177.25	13.3301
1180.14	22.7173
1183.04	33.3667
1185.93	29.7718
1188.82	22.6305
1191.71	27.4935
1194.61	27.2539
1197.5	38.7054
1200.39	24.7252
1203.29	21.6294
1206.18	39.9209
1209.07	15.485
1211.96	31.828
1214.86	41.2766
1217.75	31.1875
1220.64	26.2893
1223.53	40.0067
1226.43	33.8295
1229.32	21.8799
1232.21	13.2468
1235.1	24.1457
1238	36.3902
1240.89	17.4434
1243.78	14.8748
1246.67	22.4988
1249.57	7.27264
1252.46	35.1609
1255.35	16.0625
1258.25	39.8308
1261.14	10.8489
1264.03	27.2976
1266.92	39.5798
1269.82	33.6071
1272.71	2.96204
