Measurement: Raman, 532 nm, unoriented, Raman Data Processed
Mineral: Tomichite
Rruff sample: R070685
Ideal chemistry: V^3+^_4_Ti^4+^_3_As^3+^O_13_(OH)
Locality: Hemlo mines, Hemlo gold deposit, Marathon, Thunder Bay District, Ontario, Canada
Source: Michael Scott
Description: Black massive
Raman shift (cm-1)	intensity
156.684	0
159.577	17.1048
162.47	18.413
165.362	29.0941
168.255	23.9431
171.148	62.9677
174.04	32.0107
176.933	59.3263
179.826	63.2875
182.718	67.5719
185.611	26.275
188.504	64.7064
191.396	54.5441
194.289	33.1567
197.182	43.6038
200.075	59.2705
202.967	48.3769
205.86	39.7551
208.753	7.49744
211.645	15.8793
214.538	3.91901
217.431	57.1824
220.323	19.381
223.216	28.4175
226.109	48.6409
229.001	51.8434
231.894	22.3604
234.787	30.0594
237.68	32.8887
240.572	37.4855
243.465	49.2105
246.358	41.5012
249.25	21.3344
252.143	0.78241
255.036	1.7406
257.928	5.13574
260.821	9.72894
263.714	23.9632
266.607	10.5066
269.499	59.8965
272.392	30.5682
275.285	32.2961
278.177	29.4653
281.07	75.2656
283.963	59.025
286.856	73.2696
289.748	75.0573
292.641	52.5924
295.534	62.449
298.426	65.5711
301.319	52.9256
304.212	39.9315
307.104	45.1768
309.997	17.2255
312.89	15.7729
315.783	7.25568
318.675	6.11292
321.568	16.2275
324.461	7.45978
327.353	2.52734
330.246	2.39368
333.139	3.83038
336.031	21.0596
338.924	20.6926
341.817	27.3716
344.709	60.7235
347.602	39.1759
350.495	36.755
353.388	44.7107
356.28	36.028
359.173	7.89343
362.066	34.2637
364.958	65.7642
367.851	47.4835
370.744	46.6785
373.637	43.297
376.529	47.8359
379.422	42.9842
382.315	42.7186
385.207	47.2614
388.1	39.828
390.993	56.965
393.885	55.2555
396.778	22.5729
399.671	14.5653
402.563	49.9047
405.456	28.137
408.349	53.8599
411.242	37.2727
414.134	50.0272
417.027	34.7803
419.92	42.038
422.812	43.4574
425.705	24.1564
428.598	32.3813
431.49	36.3185
434.383	43.7518
437.276	32.7049
440.169	13.9305
443.061	36.7373
445.954	41.5144
448.847	14.1024
451.739	24.4609
454.632	11.1466
457.525	12.3595
460.417	7.72507
463.31	30.6802
466.203	31.5628
469.096	20.5421
471.988	7.84189
474.881	10.4612
477.774	16.5128
480.666	28.0359
483.559	22.6771
486.452	7.64197
489.344	26.1989
492.237	5.84335
495.13	8.1543
498.023	39.5164
500.915	27.2006
503.808	14.9772
506.701	22.078
509.593	6.138
512.486	16.7755
515.379	28.5379
518.271	1.34091
521.164	43.0726
524.057	29.7426
526.949	42.2704
529.842	14.9554
532.735	47.1063
535.628	38.4438
538.52	32.9113
541.413	32.9818
544.306	51.3828
547.198	44.5955
550.091	6.3013
552.984	24.0774
555.876	33.0971
558.769	6.14105
561.662	3.68512
564.555	3.86435
567.447	3.42685
570.34	29.1175
573.233	4.88351
576.125	30.2067
579.018	17.4512
581.911	36.9146
584.803	13.6731
587.696	11.7165
590.589	11.6354
593.482	20.5107
596.374	20.9013
599.267	2.68756
602.16	2.42908
605.052	26.1713
607.945	22.2513
610.838	15.3994
613.731	31.8613
616.623	33.1382
619.516	43.0914
622.409	39.0613
625.301	40.865
628.194	34.4573
631.087	69.2478
633.979	61.9467
636.872	49.3016
639.765	55.2158
642.658	78.5981
645.55	57.8956
648.443	37.3895
651.336	48.9785
654.228	31.528
657.121	45.4929
660.014	25.4806
662.906	13.2569
665.799	29.8776
668.692	4.1203
671.585	38.1222
674.477	12.7259
677.37	45.3956
680.263	5.98694
683.155	21.6419
686.048	9.58203
688.941	2.76782
691.833	20.5049
694.726	5.35077
697.619	6.2157
700.511	56.6555
703.404	2.29449
706.297	51.4
709.19	47.2479
712.082	43.4528
714.975	41.0652
717.868	59.5555
720.76	63.1745
723.653	53.6782
726.546	68.0248
729.438	79.987
732.331	67.7193
735.224	104.776
738.117	81.8586
741.009	99.995
743.902	104.639
746.795	64.5657
749.687	88.0674
752.58	118.927
755.473	111.109
758.365	115.957
761.258	153.051
764.151	134.865
767.044	127.107
769.936	132.625
772.829	150.593
775.722	139.989
778.614	164.808
781.507	168.236
784.4	157.459
787.293	174.469
790.185	161.175
793.078	145.972
795.971	144.115
798.863	105.13
801.756	106.082
804.649	98.9281
807.541	89.794
810.434	60.5887
813.327	45.6505
816.22	46.5899
819.112	41.9299
822.005	10.1655
824.898	4.42093
827.79	31.0335
830.683	2.99448
833.576	2.60053
836.468	5.13376
839.361	5.85278
842.254	11.8493
845.146	4.19339
848.039	0.517181
850.932	3.83722
853.824	26.1543
856.717	2.20911
859.61	25.9979
862.503	25.0662
865.395	12.363
868.288	16.1498
871.181	17.9542
874.073	30.8494
876.966	33.9515
879.859	11.7779
882.751	6.41638
885.644	22.7065
888.537	33.7571
891.43	10.8236
894.322	20.059
897.215	11.2193
900.108	35.644
903	2.03854
905.893	17.7558
908.786	12.1204
911.678	14.0236
914.571	19.9982
917.464	36.8113
920.357	20.2401
923.249	34.377
926.142	16.8619
929.035	20.5997
931.927	20.1991
934.82	11.7321
937.713	9.95474
940.606	32.6959
943.498	25.4812
946.391	24.959
949.284	9.44168
952.176	1.5802
955.069	28.6137
957.962	24.6253
960.854	29.4093
963.747	4.63727
966.64	15.5296
969.533	28.2135
972.425	9.2435
975.318	7.57568
978.211	4.81808
981.103	9.55203
983.996	27.5368
986.889	7.35397
989.781	3.8739
992.674	16.5541
995.567	19.0123
998.46	12.8724
1001.35	16.1562
1004.25	33.5302
1007.14	14.0201
1010.03	33.3352
1012.92	12.7015
1015.82	0.3573
1018.71	8.38754
1021.6	14.2235
1024.49	24.9056
1027.39	11.8856
1030.28	23.8883
1033.17	18.1488
1036.07	16.2027
1038.96	9.44547
1041.85	36.1064
1044.74	22.7629
1047.63	32.6823
1050.53	1.35693
1053.42	24.7087
1056.31	26.369
1059.21	8.17926
1062.1	5.46414
1064.99	36.6955
1067.88	8.88513
1070.78	4.03735
1073.67	25.8628
1076.56	25.6772
1079.45	20.4333
1082.35	15.6269
1085.24	20.5109
1088.13	10.7066
1091.03	32.0498
1093.92	5.18823
1096.81	27.2947
1099.7	29.4893
1102.6	25.7088
1105.49	2.61954
1108.38	17.9449
1111.28	26.0721
1114.17	13.1387
1117.06	19.6835
1119.95	0.663452
1122.85	22.7781
1125.74	6.65369
1128.63	2.37808
1131.52	31.2485
1134.42	14.3986
1137.31	1.78519
1140.2	13.8178
1143.09	21.2288
1145.99	16.3214
1148.88	7.54947
1151.77	24.5571
1154.66	3.5495
1157.56	9.65338
1160.45	9.43304
1163.34	13.0321
1166.24	10.6096
1169.13	1.97424
1172.02	18.3405
1174.91	32.0911
1177.81	7.53937
1180.7	5.30106
1183.59	16.4274
1186.48	14.0701
1189.38	25.4228
1192.27	12.2739
1195.16	26.5879
1198.06	27.7996
1200.95	36.299
1203.84	1.72574
1206.73	49.356
1209.63	24.5095
1212.52	34.0191
1215.41	31.922
1218.31	24.6341
1221.2	10.606
1224.09	10.9502
1226.98	38.3586
1229.88	30.3135
1232.77	37.3409
1235.66	25.7331
1238.55	28.5561
1241.45	20.7935
1244.34	15.1045
1247.23	24.1482
1250.12	33.8677
1253.02	17.502
1255.91	22.7317
1258.8	10.1181
1261.69	20.2386
1264.59	21.9685
1267.48	28.1598
1270.37	9.05161
1273.27	9.05347
1276.16	30.807
1279.05	25.5527
1281.94	13.5074
1284.84	47.3907
1287.73	3.9726
