Measurement: Raman, 532 nm, unoriented, Raman Data Processed
Mineral: Tomichite
Rruff sample: R070708
Ideal chemistry: V^3+^_4_Ti^4+^_3_As^3+^O_13_(OH)
Locality: Hemlo Mines, Hemlo gold deposit, Marathon, Thunder Bay District, Ontario, Canada
Source: Michael Scott
Description: Black bleb associated with titanite, sanidine and tetrahedrite; opaque under microscope
Raman shift (cm-1)	intensity
156.202	0
159.095	60.043
161.987	5.19208
164.88	35.5743
167.773	59.5364
170.665	17.8784
173.558	54.6607
176.451	54.0051
179.344	52.5005
182.236	25.4468
185.129	34.205
188.022	27.5178
190.914	14.5555
193.807	45.6081
196.7	40.709
199.592	62.1387
202.485	44.3541
205.378	26.0251
208.27	30.8609
211.163	19.1618
214.056	9.32925
216.949	11.407
219.841	29.222
222.734	9.05621
225.627	12.4174
228.519	29.4681
231.412	35.8125
234.305	10.057
237.197	19.0012
240.09	6.82373
242.983	24.8898
245.876	13.7502
248.768	33.0819
251.661	28.9988
254.554	8.8804
257.446	19.6467
260.339	18.9256
263.232	12.3577
266.125	20.0049
269.017	15.4604
271.91	21.7075
274.803	22.3094
277.695	23.5547
280.588	9.94266
283.481	50.3288
286.373	16.7595
289.266	14.9235
292.159	58.375
295.051	7.78638
297.944	45.2451
300.837	48.7824
303.73	39.3815
306.622	50.9127
309.515	2.35275
312.408	29.3371
315.3	11.4557
318.193	1.81332
321.086	0.430939
323.978	25.8337
326.871	25.7379
329.764	57.0983
332.657	71.5874
335.549	22.41
338.442	26.3028
341.335	22.5702
344.227	76.3729
347.12	31.2721
350.013	2.7879
352.906	33.8629
355.798	25.2647
358.691	22.6954
361.584	23.8094
364.476	31.6446
367.369	10.3535
370.262	65.5031
373.154	14.0907
376.047	22.8176
378.94	32.9442
381.832	9.39835
384.725	35.3885
387.618	39.7553
390.511	17.0205
393.403	24.2636
396.296	21.0959
399.189	34.4061
402.081	27.6714
404.974	27.0868
407.867	29.0589
410.76	14.761
413.652	8.40204
416.545	44.0095
419.438	26.8729
422.33	18.3244
425.223	18.8369
428.116	13.5425
431.008	16.1104
433.901	40.4067
436.794	23.307
439.687	31.8783
442.579	34.7004
445.472	30.9344
448.365	40.8504
451.257	33.4359
454.15	2.66199
457.043	18.807
459.935	12.9709
462.828	0.265015
465.721	2.47073
468.613	28.0319
471.506	12.5194
474.399	24.9121
477.291	4.34903
480.184	23.3874
483.077	15.4215
485.97	2.73321
488.862	45.487
491.755	24.5218
494.648	8.61865
497.54	16.2031
500.433	8.49219
503.326	34.7738
506.219	28.3575
509.111	17.8873
512.004	14.0489
514.897	34.3634
517.789	14.8194
520.682	4.23142
523.575	41.7841
526.467	41.9524
529.36	33.051
532.253	2.73599
535.145	20.4159
538.038	9.01517
540.931	37.0272
543.824	11.0543
546.716	21.725
549.609	37.4113
552.502	41.31
555.394	36.2022
558.287	34.0918
561.18	26.8425
564.072	24.1148
566.965	24.691
569.858	9.64484
572.751	8.58035
575.643	31.5444
578.536	17.5376
581.429	0.234314
584.321	1.58224
587.214	17.7834
590.107	19.4468
593	16.1333
595.892	23.3439
598.785	37.2842
601.678	30.3948
604.57	8.34906
607.463	16.0183
610.356	12.7771
613.248	17.9111
616.141	26.6374
619.034	36.3477
621.927	39.4264
624.819	29.5151
627.712	29.03
630.605	13.0072
633.497	22.6386
636.39	7.28577
639.283	31.1981
642.175	24.05
645.068	15.9543
647.961	47.1915
650.854	22.5033
653.746	32.8152
656.639	27.8239
659.532	11.3378
662.424	14.4344
665.317	30.7323
668.21	4.93393
671.102	35.4257
673.995	1.48129
676.888	10.6305
679.78	12.9793
682.673	22.3983
685.566	9.33426
688.459	35.8229
691.351	13.538
694.244	42.5057
697.137	41.1593
700.029	22.6645
702.922	25.168
705.815	24.4954
708.707	18.9293
711.6	36.0827
714.493	44.7508
717.386	24.1669
720.278	26.8002
723.171	27.2404
726.064	22.54
728.956	59.1932
731.849	38.8486
734.742	58.062
737.635	50.9577
740.527	20.9255
743.42	22.6711
746.313	22.9989
749.205	34.5846
752.098	42.3935
754.991	35.8192
757.883	42.6917
760.776	54.1396
763.669	40.234
766.562	34.545
769.454	40.4922
772.347	64.4962
775.24	71.3302
778.132	54.5772
781.025	68.5031
783.918	70.3623
786.81	61.7462
789.703	67.2375
792.596	69.8902
795.489	60.8929
798.381	27.1001
801.274	71.6283
804.167	50.6833
807.059	39.2144
809.952	60.2921
812.845	55.0478
815.737	33.0943
818.63	32.7665
821.523	8.63538
824.415	18.8117
827.308	5.65343
830.201	20.8252
833.093	14.6085
835.986	1.60698
838.879	8.43965
841.772	12.6877
844.664	5.01433
847.557	19.4241
850.45	35.6637
853.342	15.802
856.235	4.81847
859.128	14.0169
862.02	7.51109
864.913	13.0207
867.806	15.3665
870.699	32.1287
873.591	14.8778
876.484	5.72508
879.377	4.56758
882.269	9.49747
885.162	22.2169
888.055	42.3766
890.947	18.0802
893.84	14.1875
896.733	38.7519
899.626	20.6683
902.518	25.696
905.411	26.6732
908.304	26.3792
911.196	32.8947
914.089	22.6819
916.982	16.5124
919.875	39.1474
922.767	39.7402
925.66	6.7991
928.553	23.2649
931.445	32.9112
934.338	9.67743
937.231	6.66919
940.123	6.01045
943.016	0.502625
945.909	2.92416
948.802	14.761
951.694	18.3832
954.587	3.86165
957.48	4.97475
960.372	10.4204
963.265	28.5615
966.158	13.4547
969.05	21.2902
971.943	13.9709
974.836	6.05663
977.729	32.2208
980.621	24.9737
983.514	3.80806
986.407	14.6037
989.299	19.88
992.192	34.0483
995.085	33.2595
997.977	5.85934
1000.87	1.54744
1003.76	9.9688
1006.65	10.6458
1009.55	8.38147
1012.44	13.909
1015.33	17.0431
1018.23	1.00525
1021.12	21.7495
1024.01	51.601
1026.9	39.2021
1029.8	34.1906
1032.69	29.902
1035.58	42.7457
1038.47	32.4813
1041.37	52.6627
1044.26	43.8619
1047.15	52.0045
1050.05	39.0032
1052.94	26.2795
1055.83	34.07
1058.72	20.4939
1061.62	25.0894
1064.51	29.2104
1067.4	19.4374
1070.3	38.997
1073.19	22.1324
1076.08	37.2112
1078.97	15.7691
1081.87	18.9118
1084.76	20.7735
1087.65	12.1492
1090.54	18.3442
1093.44	15.9703
1096.33	3.73128
1099.22	26.4377
1102.12	9.25839
1105.01	31.222
1107.9	9.80667
1110.79	15.5333
1113.68	26.1155
1116.58	38.5734
1119.47	21.7382
1122.36	11.9499
1125.26	9.97189
1128.15	8.03882
1131.04	16.2198
1133.93	7.46928
1136.83	8.55513
1139.72	23.1737
1142.61	45.0965
1145.51	11.6166
1148.4	18.5012
1151.29	26.1353
1154.18	13.9753
1157.08	17.4615
1159.97	13.1145
1162.86	15.3875
1165.75	18.0154
1168.65	31.1885
1171.54	8.70094
1174.43	20.595
1177.33	27.6375
1180.22	17.4018
1183.11	13.6244
1186	14.2064
1188.9	7.96953
1191.79	21.8672
1194.68	41.355
1197.57	31.9644
1200.47	34.2781
1203.36	4.09521
1206.25	2.01594
1209.14	36.5033
1212.04	9.63721
1214.93	32.4066
1217.82	37.9665
1220.71	41.2008
1223.61	1.05118
1226.5	16.9062
1229.39	23.5127
1232.29	1.63142
1235.18	29.8111
1238.07	40.508
1240.96	33.983
1243.86	4.08853
1246.75	51.0455
1249.64	14.3647
1252.54	14.216
1255.43	23.426
1258.32	39.5662
1261.21	7.67685
1264.11	14.1506
1267	4.16304
1269.89	31.3778
1272.78	23.3284
1275.68	26.8641
1278.57	31.2815
1281.46	51.1946
1284.36	33.3971
1287.25	38.5577
1290.14	13.3445
1293.03	0.618637
1295.92	15.3199
1298.82	9.97261
