Measurement: Raman, 780 nm, unoriented, Raman Data Processed
Mineral: Tomichite
Rruff sample: R070708
Ideal chemistry: V^3+^_4_Ti^4+^_3_As^3+^O_13_(OH)
Locality: Hemlo Mines, Hemlo gold deposit, Marathon, Thunder Bay District, Ontario, Canada
Source: Michael Scott
Description: Black bleb associated with titanite, sanidine and tetrahedrite; opaque under microscope
Raman shift (cm-1)	intensity
146.967	0
149.859	45.7542
152.752	16.7457
155.645	1.08581
158.537	34.6221
161.43	15.7389
164.323	12.5529
167.215	15.666
170.108	32.0712
173.001	48.5279
175.894	38.273
178.786	27.352
181.679	49.6769
184.572	57.6372
187.464	10.3942
190.357	52.4449
193.25	22.4676
196.143	6.8136
199.035	0.3125
201.928	37.9438
204.821	1.09839
207.713	13.2239
210.606	7.04651
213.499	43.0885
216.392	23.9763
219.284	21.2208
222.177	28.6276
225.07	36.8565
227.962	49.7618
230.855	43.5442
233.748	28.5593
236.64	19.9784
239.533	68.8679
242.426	24.1143
245.319	58.4205
248.211	56.3408
251.104	52.608
253.997	23.3572
256.889	15.6644
259.782	34.7238
262.675	6.20862
265.567	30.4597
268.46	71.1459
271.353	56.6879
274.245	70.1696
277.138	101.427
280.031	136.458
282.924	121.546
285.816	135.487
288.709	172.951
291.602	146.071
294.494	136.601
297.387	127.913
300.28	122.536
303.173	118.728
306.065	69.9076
308.958	112.415
311.851	14.218
314.743	1.15143
317.636	40.9256
320.529	14.5584
323.421	2.31305
326.314	9.2525
329.207	65.2176
332.099	24.7182
334.992	21.5683
337.885	51.6083
340.778	17.3514
343.67	18.0225
346.563	25.1737
349.456	11.2881
352.348	2.13538
355.241	7.24854
358.134	26.3628
361.027	30.1807
363.919	29.9603
366.812	26.9128
369.705	25.7002
372.597	61.259
375.49	78.5136
378.383	51.8306
381.276	64.5427
384.168	64.8536
387.061	59.4629
389.954	62.1645
392.846	81.6016
395.739	43.0735
398.632	30.8047
401.524	36.5427
404.417	74.5003
407.31	44.6917
410.202	59.4492
413.095	36.0703
415.988	46.6052
418.881	19.9833
421.773	40.6942
424.666	35.4291
427.559	38.7427
430.451	27.0402
433.344	55.8558
436.237	1.99286
439.13	42.8746
442.022	32.7783
444.915	58.4446
447.808	1.51587
450.7	64.5063
453.593	14.3728
456.486	56.9254
459.378	12.189
462.271	24.6069
465.164	19.2787
468.057	29.3677
470.949	19.5126
473.842	41.9139
476.735	29.6542
479.627	20.7634
482.52	2.75452
485.413	27.9758
488.305	24.7897
491.198	43.4298
494.091	38.8491
496.983	13.3082
499.876	10.8627
502.769	30.0877
505.662	0.675903
508.554	15.206
511.447	10.643
514.34	14.8922
517.232	34.595
520.125	14.2203
523.018	16.756
525.91	41.1176
528.803	28.4342
531.696	30.9735
534.589	32.8506
537.481	37.3798
540.374	44.3751
543.267	51.7762
546.159	54.1423
549.052	44.8842
551.945	61.3054
554.837	65.0494
557.73	60.8266
560.623	30.6388
563.516	31.05
566.408	40.9379
569.301	16.6045
572.194	11.625
575.086	7.617
577.979	13.0801
580.872	13.5428
583.764	15.5464
586.657	22.3038
589.55	6.15051
592.443	8.30396
595.335	16.8315
598.228	27.1653
601.121	47.6351
604.014	42.5353
606.906	18.658
609.799	28.6392
612.692	14.9712
615.584	20.3827
618.477	42.3976
621.37	39.3025
624.262	30.9526
627.155	62.4873
630.048	25.3184
632.941	45.8383
635.833	46.3914
638.726	43.5457
641.619	33.0216
644.511	29.1183
647.404	28.0508
650.297	29.3295
653.189	34.7349
656.082	41.8042
658.975	42.3284
661.867	29.5925
664.76	24.5707
667.653	6.0741
670.546	30.3622
673.438	22.4925
676.331	1.19501
679.224	23.0388
682.116	5.09674
685.009	4.45386
687.902	12.0631
690.794	22.5517
693.687	7.58453
696.58	20.0674
699.473	16.8831
702.365	29.0549
705.258	46.2416
708.151	51.6044
711.043	27.0712
713.936	37.1815
716.829	55.143
719.721	50.6056
722.614	52.5649
725.507	51.9676
728.4	56.758
731.292	61.3935
734.185	63.4885
737.078	69.5478
739.971	77.4081
742.863	78.7638
745.756	65.2603
748.649	72.0858
751.541	61.1136
754.434	53.7942
757.327	51.1027
760.219	43.7215
763.112	76.5492
766.005	38.4404
768.898	73.238
771.79	73.9812
774.683	81.8487
777.576	87.4052
780.468	102.787
783.361	90.8712
786.254	101.551
789.146	113.729
792.039	113.38
794.932	103.179
797.824	65.1128
800.717	82.9616
803.61	73.8873
806.503	50.8439
809.395	85.783
812.288	113.711
815.181	65.1099
818.073	48.7693
820.966	16.0143
823.859	34.3704
826.751	15.0442
829.644	16.9294
832.537	36.5366
835.43	13.9197
838.322	19.2701
841.215	15.3348
844.108	24.8899
847	3.79608
849.893	18.7711
852.786	34.5419
855.678	18.3208
858.571	11.3794
861.464	32.6902
864.357	40.5975
867.249	26.2086
870.142	22.7384
873.035	25.0765
875.927	30.19
878.82	37.9736
881.713	15.3608
884.606	45.4523
887.498	22.9484
890.391	31.6047
893.284	47.6836
896.176	49.5633
899.069	31.4181
901.962	12.0918
904.854	9.14221
907.747	48.5142
910.64	13.0734
913.533	27.2868
916.425	15.4224
919.318	45.8268
922.211	20.0824
925.103	41.9597
927.996	33.0576
930.889	15.5055
933.781	28.8852
936.674	25.1007
939.567	24.773
942.46	22.942
945.352	33.9117
948.245	28.0465
951.138	22.383
954.03	23.6949
956.923	34.8073
959.816	37.5727
962.708	37.4725
965.601	40.5654
968.494	38.8933
971.386	40.3897
974.279	22.1245
977.172	28.4525
980.065	14.5241
982.957	18.4085
985.85	34.3144
988.743	13.5399
991.635	2.29141
994.528	3.90933
997.421	16.4157
1000.31	25.2607
1003.21	22.9768
1006.1	13.5673
1008.99	5.89862
1011.88	15.3795
1014.78	7.64853
1017.67	39.3265
1020.56	43.4336
1023.46	3.93506
1026.35	41.9496
1029.24	34.9015
1032.13	0.844513
1035.03	43.8077
1037.92	17.9287
1040.81	57.5887
1043.7	36.6268
1046.6	21.2044
1049.49	24.8517
1052.38	29.0386
1055.28	33.8618
1058.17	23.4628
1061.06	27.6051
1063.95	40.3458
1066.85	7.26398
1069.74	21.1442
1072.63	29.1476
1075.52	43.5051
1078.42	34.4689
1081.31	27.4564
1084.2	16.3724
1087.1	12.3254
1089.99	32.9796
1092.88	16.7335
1095.77	3.38519
1098.66	29.031
1101.56	1.10754
1104.45	12.0694
1107.34	8.18771
1110.24	6.13968
1113.13	6.25925
1116.02	27.3153
1118.91	16.8507
1121.81	32.0178
1124.7	8.14948
1127.59	22.8474
1130.48	27.7279
1133.38	23.2515
1136.27	19.5665
1139.16	23.5254
1142.06	11.0014
1144.95	21.2117
1147.84	10.269
1150.73	39.1855
1153.63	24.9212
1156.52	34.9879
1159.41	13.8988
1162.31	2.29471
1165.2	47.968
1168.09	1.11706
1170.98	20.823
1173.88	16.8669
1176.77	37.3859
1179.66	34.5463
1182.55	9.04419
1185.45	4.22525
1188.34	3.55749
1191.23	22.7484
1194.12	25.2013
1197.02	44.4884
1199.91	23.3022
1202.8	28.5501
1205.69	30.4784
1208.59	37.3559
1211.48	12.8029
1214.37	31.8901
1217.27	30.9461
1220.16	8.77185
1223.05	8.64008
1225.94	33.45
1228.84	42.8057
1231.73	41.8551
1234.62	44.7711
1237.52	25.8767
1240.41	9.84985
1243.3	11.8418
1246.19	45.2111
1249.09	13.0292
1251.98	24.0147
1254.87	8.4198
1257.76	4.52933
1260.66	34.0117
1263.55	46.8833
1266.44	33.7371
1269.34	26.5519
1272.23	12.4198
1275.12	5.10474
1278.01	7.88199
1280.91	19.7149
1283.8	17.9107
1286.69	38.3484
