Measurement: Raman, 785 nm, unoriented, Raman Data Processed
Mineral: Tourmaline
Rruff sample: R080010
Locality: east Africa
Source: www.multicolour.com
Description: Green gemmy fragments, consistent with dravite
Raman shift (cm-1)	intensity
169.034	0
171.927	200.691
174.82	264.531
177.712	268.418
180.605	211.875
183.498	151.438
186.39	53.6133
189.283	124.078
192.176	112.988
195.068	231.82
197.961	9.25391
200.854	344.078
203.746	187.957
206.639	366.801
209.532	535.586
212.425	719.453
215.317	640.398
218.21	689.793
221.103	463.891
223.995	410.625
226.888	116.176
229.781	272.445
232.673	244.894
235.566	321.938
238.459	401.871
241.352	308.406
244.244	551.836
247.137	350.356
250.03	214.125
252.922	114.34
255.815	41.3984
258.708	90.5039
261.601	68.7188
264.493	47.2617
267.386	8.98828
270.279	69.6328
273.171	231.578
276.064	90.0156
278.957	144.246
281.849	265.457
284.742	35.4531
287.635	87.8711
290.527	123.426
293.42	50.0078
296.313	112.606
299.205	87.1367
302.098	278.531
304.991	281.527
307.884	315.539
310.776	618
313.669	373.469
316.562	558.207
319.454	518.031
322.347	501.016
325.24	370.625
328.132	421.344
331.025	509.731
333.918	465.438
336.811	530.883
339.703	497.445
342.596	512.891
345.489	727.969
348.381	610.305
351.274	751.258
354.167	790.371
357.06	962.211
359.952	1380.35
362.845	1477.24
365.738	1756.62
368.63	1995.56
371.523	2006.6
374.416	1631.58
377.308	1325.98
380.201	1060.28
383.094	738.629
385.986	653.211
388.879	512.379
391.772	610.227
394.665	392.023
397.557	460.254
400.45	536.211
403.343	324.906
406.235	236.965
409.128	95.0156
412.021	227.144
414.913	150.859
417.806	186.316
420.699	217.363
423.592	137.566
426.484	70.9297
429.377	158.371
432.27	3.22266
435.162	101.629
438.055	128.562
440.948	120.109
443.84	116.523
446.733	255.285
449.626	53.1289
452.519	106.242
455.411	41.1172
458.304	68.0898
461.197	16.7695
464.089	142.363
466.982	192.559
469.875	99.4609
472.767	23.8086
475.66	59.7383
478.553	66.0586
481.445	59.1172
484.338	244.781
487.231	231.231
490.124	307.988
493.016	237.559
495.909	264.277
498.802	487.574
501.694	237.961
504.587	167.113
507.48	359.801
510.373	437.547
513.265	377.32
516.158	292.66
519.051	263.914
521.943	137.602
524.836	92.0859
527.729	240.875
530.621	245.336
533.514	458.574
536.407	136.496
539.299	197.363
542.192	36.7578
545.085	222.215
547.977	104.555
550.87	68.2266
553.763	105.422
556.656	81.6523
559.548	196.996
562.441	48.6094
565.334	96.2852
568.226	49.9688
571.119	33.9414
574.012	5.09375
576.904	81.6211
579.797	226.375
582.69	241.797
585.583	11.0664
588.475	6.18359
591.368	21.3594
594.261	56.9727
597.153	75.9297
600.046	178.328
602.939	142.969
605.832	93.1836
608.724	79.6875
611.617	104.867
614.51	83.4141
617.402	60.25
620.295	153.672
623.188	298.152
626.08	193.41
628.973	302.023
631.866	151.367
634.759	78.832
637.651	233.519
640.544	274.766
643.437	148.457
646.329	192.856
649.222	320.656
652.115	232.125
655.007	231.945
657.9	176.953
660.793	380.625
663.686	530.738
666.578	402.992
669.471	452.469
672.364	413.75
675.256	476.871
678.149	329.207
681.042	309.914
683.934	269.481
686.827	231.836
689.72	274.859
692.612	457.199
695.505	386.082
698.398	692.133
701.291	646.441
704.183	666.731
707.076	469.762
709.969	384.609
712.861	216.324
715.754	368.535
718.647	164.789
721.539	128.426
724.432	254.727
727.325	158.309
730.217	34.668
733.11	135.254
736.003	156.815
738.896	126.457
741.788	227.705
744.681	36.7324
747.574	153.273
750.466	197.685
753.359	179.199
756.252	19.584
759.144	163.269
762.037	163.41
764.93	130.143
767.823	124.894
770.715	26.4805
773.608	23.3906
776.501	119.996
779.393	195.863
782.286	201.592
785.179	58.5977
788.072	25.6016
790.964	210.959
793.857	155.85
796.75	61.6055
799.642	122.494
802.535	190.67
805.428	40.2207
808.32	147.545
811.213	234.31
814.106	174.363
816.999	230.647
819.891	222.889
822.784	288.338
825.677	285.238
828.569	254.305
831.462	300.68
834.355	238.603
837.247	126.889
840.14	186.486
843.033	137.289
845.926	182.225
848.818	245.709
851.711	281.098
854.604	40.4043
857.496	76.3848
860.389	89.1973
863.282	56.0391
866.174	27.0098
869.067	14.2695
871.96	37.8906
874.852	131.732
877.745	139.793
880.638	93.6758
883.53	82.2422
886.423	191.154
889.316	197.041
892.209	227.484
895.101	290.039
897.994	192.41
900.887	74.4219
903.779	20.2793
906.672	69.4238
909.565	44.2324
912.457	169.119
915.35	9.17773
918.243	190.125
921.136	75.0703
924.028	151.674
926.921	95.2305
929.814	65.7461
932.706	148.441
935.599	197.662
938.492	35.4512
941.385	112.047
944.277	88.0352
947.17	114.424
950.063	38.2734
952.955	145.465
955.848	139.529
958.741	80.9863
961.633	138.633
964.526	204.627
967.419	223.109
970.312	9.57031
973.204	134.076
976.097	122.752
978.99	14.7266
981.882	124.08
984.775	6.87305
987.668	127.615
990.56	66.8418
993.453	62.7988
996.346	57.4395
999.239	85.0723
1002.13	168.453
1005.02	32.9375
1007.92	130.852
1010.81	107.977
1013.7	144.393
1016.6	180.955
1019.49	239.512
1022.38	177.748
1025.27	225.381
1028.16	12.6055
1031.06	143.522
1033.95	254.006
1036.84	272.342
1039.74	249.85
1042.63	251.828
1045.52	167.904
1048.41	195.525
1051.31	50.5859
1054.2	221.1
1057.09	200.928
1059.98	229.123
1062.88	119.1
1065.77	212.574
1068.66	275.287
1071.56	129.906
1074.45	264.455
1077.34	98.2461
1080.23	64.9238
1083.13	130.037
1086.02	42.2168
1088.91	162.373
1091.81	69.2305
1094.7	57.3418
1097.59	233.691
1100.48	19.4434
1103.38	220.783
1106.27	147.904
1109.16	138.164
1112.05	10.8711
1114.95	126.26
1117.84	160.887
1120.73	301.69
1123.62	368.113
1126.52	357.688
1129.41	345.258
1132.3	474.891
1135.19	469.85
1138.09	520.166
1140.98	491.441
1143.87	492.512
1146.77	454.773
1149.66	617.348
1152.55	593.818
1155.44	363.84
1158.34	260.394
1161.23	250.344
1164.12	258.533
1167.02	85.582
1169.91	135.121
1172.8	49.2676
1175.69	31.5566
1178.59	0.341797
1181.48	93.8496
1184.37	119.082
1187.26	285.65
1190.16	306.506
1193.05	284.557
1195.94	118.277
1198.84	89.0977
1201.73	28.7148
1204.62	36.2285
