Measurement: Raman, 532 nm, unoriented, Raman Data Processed
Mineral: Trattnerite
Rruff sample: R060623
Ideal chemistry: Fe^3+^_2_(Mg_3_Si_12_)O_30_
Locality: Stradner Kogel Mountain, Wilhelmsdorf, Bad Gleichenberg, Styria, Austria
Source: Michael Scott
Description: Isolated dark-blue hexagonal plates
Measured chemistry: ([box]_0.90_K_0.10_)_Σ=1_(Fe^3+^_1.96_Cr_0.03_Ti_0.01_)_Σ=2_(Mg_2.08_Fe^2+_0.81_Mn_0.11_)_Σ=3_[(Si_11.88_Al_0.12_)_Σ=12_O_30_] ; dark inclusion: (K_0.53_Na_0.47_)_Σ=1_(Al_0.98_Fe^3+^_0.02_)_Σ=1_(Si_2.99_Al_0.01_)_Σ=3_O_8_
Raman shift (cm-1)	intensity
178.368	0
181.26	19.7832
184.153	4.91797
187.046	40.9248
189.939	97.5283
192.831	140.585
195.724	137.168
198.617	126.356
201.509	248.244
204.402	231.223
207.295	210.258
210.187	193.256
213.08	213.041
215.973	172.591
218.865	149.273
221.758	235.898
224.651	197.824
227.544	235.369
230.436	198.548
233.329	207.243
236.222	213.931
239.114	311.955
242.007	233.765
244.9	268.044
247.792	299.796
250.685	243.208
253.578	237.042
256.471	213.227
259.363	106.381
262.256	247.945
265.149	207.511
268.041	190.935
270.934	207.293
273.827	137.433
276.719	125.525
279.612	201.185
282.505	28.3896
285.398	32.4971
288.29	98.2695
291.183	22.2666
294.076	102.082
296.969	45.7588
299.861	9.44824
302.754	84.8291
305.647	12.582
308.539	40.2998
311.432	34.623
314.325	19.3311
317.217	90.5019
320.11	40.8565
323.003	71.3555
325.896	12.5752
328.788	18.1904
331.681	89.9434
334.574	22.3633
337.466	4.14648
340.359	47.419
343.252	87.4258
346.144	53.0859
349.037	67.625
351.93	40.2373
354.822	153.602
357.715	84.166
360.608	32.0732
363.501	79.8174
366.393	119.777
369.286	53.0459
372.179	117.918
375.071	135.827
377.964	122.492
380.857	146.547
383.75	55.3428
386.642	25.6357
389.535	38.4609
392.428	20.9551
395.32	74.5977
398.213	36.2852
401.106	55.6475
403.998	73.0723
406.891	6.11328
409.784	6.91699
412.676	48.8711
415.569	129.43
418.462	93.4873
421.355	78.5889
424.247	50.4121
427.14	153.103
430.033	97.375
432.925	134.102
435.818	93.2353
438.711	197.643
441.603	185.311
444.496	172.873
447.389	159.795
450.282	295.106
453.174	274.896
456.067	378.553
458.96	533.15
461.852	547.126
464.745	393.378
467.638	446.188
470.531	302.679
473.423	117.409
476.316	160.124
479.209	187.702
482.101	22.2305
484.994	105.177
487.887	121.845
490.779	7.09375
493.672	62.0322
496.565	8.47363
499.458	115.606
502.35	37.4951
505.243	61.3086
508.136	29.7314
511.028	114.967
513.921	129.649
516.814	110.231
519.707	136.266
522.599	107.383
525.492	201.871
528.385	158.846
531.277	182.334
534.17	170.287
537.063	263.301
539.955	188.383
542.848	255.703
545.741	290.559
548.634	82.0606
551.526	183.609
554.419	132.418
557.312	174.805
560.204	166.9
563.097	43.9141
565.99	66.8926
568.882	17.1309
571.775	11.4551
574.668	84.7051
577.561	6.40625
580.453	42.5449
583.346	122.543
586.239	49.3047
589.131	120.037
592.024	128.553
594.917	85.5938
597.809	92.5019
600.702	94.3281
603.595	134.633
606.487	158.762
609.38	107.037
612.273	98.5606
615.166	160.514
618.058	112.053
620.951	57.9062
623.844	126.949
626.736	35.1777
629.629	119.463
632.522	78.3106
635.415	161.631
638.307	141.447
641.2	86.7695
644.093	199.619
646.985	131.383
649.878	137.713
652.771	132.088
655.663	158.461
658.556	147.756
661.449	121.258
664.342	100.379
667.234	103.611
670.127	119.971
673.02	117.1
675.912	101.816
678.805	15.4258
681.698	85.5918
684.591	39.5156
687.483	74.3926
690.376	66.5176
693.269	73.0449
696.161	81.541
699.054	8.68359
701.947	90.8672
704.839	49.9414
707.732	79.5644
710.625	21.4277
713.518	25.9414
716.41	74.9023
719.303	11.9551
722.196	75.2812
725.088	11.541
727.981	53.0801
730.874	26.4316
733.766	87.6953
736.659	30.6172
739.552	23.7344
742.444	53.5469
745.337	68.5859
748.23	29.4297
751.123	113.686
754.015	36.625
756.908	94.7871
759.801	37.6367
762.693	125.328
765.586	75.1309
768.479	99.9082
771.371	20.8809
774.264	131.5
777.157	49.4785
780.05	157.346
782.942	37.9746
785.835	43.3984
788.728	117.373
791.62	181.756
794.513	71.9316
797.406	22.7266
800.298	66.3301
803.191	67.8496
806.084	68.4141
808.977	52.1641
811.869	27.0859
814.762	0.890625
817.655	73.4629
820.547	124.746
823.44	109.225
826.333	18.6934
829.226	81.0156
832.118	28.0176
835.011	51.6152
837.904	3.99414
840.796	45.4199
843.689	15.7051
846.582	64.2598
849.474	68.0098
852.367	30.9395
855.26	74.1719
858.153	40.4297
861.045	86.5098
863.938	70.9141
866.831	128.648
869.723	139.24
872.616	53.4434
875.509	13.9883
878.401	86.3867
881.294	82.1992
884.187	88.1348
887.08	99.6426
889.972	148.285
892.865	80.5371
895.758	23.9336
898.65	240.027
901.543	191.113
904.436	295.223
907.328	219.633
910.221	185.231
913.114	117.451
916.007	171.721
918.899	405.076
921.792	233.654
924.685	231.375
927.577	243.818
930.47	129.857
933.363	158.643
936.255	333.861
939.148	280.971
942.041	365.059
944.934	274.525
947.826	259.516
950.719	330.609
953.612	154.068
956.504	198.525
959.397	258.18
962.29	271.078
965.183	186.256
968.075	175.5
970.968	157.254
973.861	131.566
976.753	244.596
979.646	297.471
982.539	72.7949
985.431	157.955
988.324	117.549
991.217	125.078
994.11	129.478
997.002	48.0781
999.895	73.7676
1002.79	14.959
1005.68	103.043
1008.57	79.6387
1011.47	12.4395
1014.36	40.8613
1017.25	123.375
1020.14	130.166
1023.04	175.014
1025.93	145.92
1028.82	81.8574
1031.71	35.041
1034.61	170.488
1037.5	126.897
1040.39	102.633
1043.29	70.3184
1046.18	43.9551
1049.07	166.209
1051.96	21.916
1054.86	65.9902
1057.75	133.719
1060.64	31.7285
1063.53	43.4551
1066.43	90.9941
1069.32	153.793
1072.21	75.2324
1075.11	211.971
1078	24.0859
1080.89	40.6172
1083.78	94.7266
1086.68	47.9062
1089.57	169.297
1092.46	185.148
1095.35	49.5273
1098.25	185.475
1101.14	166.457
1104.03	188.019
1106.92	216.949
1109.82	13.5
1112.71	3.60547
1115.6	87.1719
1118.5	43.2793
1121.39	228.625
1124.28	183.451
1127.17	188.865
1130.07	162.213
1132.96	80.4297
1135.85	126.135
1138.74	226.678
1141.64	246.424
1144.53	205.016
1147.42	315.242
1150.32	21.6289
1153.21	309.326
1156.1	164.703
1158.99	215.922
1161.89	292.148
1164.78	78.8594
1167.67	52.3574
1170.56	244.938
1173.46	100.062
1176.35	147.08
1179.24	143.555
1182.13	104.732
1185.03	97.3887
1187.92	44.3711
1190.81	32.0996
1193.71	75.1348
1196.6	39.0352
1199.49	145.344
1202.38	68.1797
1205.28	73.6738
1208.17	69.8457
1211.06	102.91
1213.95	78.0996
1216.85	72.9844
1219.74	103.656
1222.63	8.66797
1225.53	57.5488
1228.42	108.059
1231.31	211.363
1234.2	37.5547
1237.1	197.522
1239.99	94.2676
1242.88	30.0781
1245.78	169.57
1248.67	118.713
1251.56	103.924
1254.45	43.5742
1257.35	161.268
1260.24	38.2012
1263.13	92.3633
1266.02	26.3887
1268.92	118.356
1271.81	151.428
1274.7	66.8633
1277.59	189.627
1280.49	127.684
1283.38	175.051
1286.27	195.832
1289.16	93.1856
1292.06	115.32
1294.95	85.5508
1297.84	77.0117
1300.74	94.6113
