Measurement: Raman, 780 nm, unoriented, Raman Data Processed
Mineral: Tremolite
Rruff sample: R050210
Ideal chemistry: [box]Ca_2_Mg_5_Si_8_O_22_(OH)_2_
Locality: Sugar Lake, Cherryville, British Columbia, Canada
Source: Lloyd Twaites
Description: Green bladed crystal fragment
Measured chemistry: (Na_0.34_K_0.06_)(Ca_1.96_Mg_0.01_)Mg_4.94_(Si_7.50_Al_0.46_)O_22_(OH)_2_
Raman shift (cm-1)	intensity
119.084	0
122.459	260.789
125.834	472.781
129.209	401.836
132.583	195.797
135.958	259.703
139.333	166.617
142.708	382.086
146.083	562.742
149.458	780.039
152.832	477.219
156.207	704.055
159.582	1031.34
162.957	1298.38
166.332	1156.72
169.706	702.578
173.081	854.562
176.456	1035.41
179.831	1024.08
183.206	803.828
186.581	602.859
189.955	684.656
193.33	762.266
196.705	589.031
200.08	515.812
203.455	619.125
206.829	530.297
210.204	1035.48
213.579	954.516
216.954	1042.7
220.329	1011.14
223.703	1280.61
227.078	1123.52
230.453	899.672
233.828	1002.78
237.203	631.828
240.578	539.594
243.952	350.188
247.327	772.234
250.702	164.109
254.077	122.156
257.452	149.75
260.827	228.625
264.201	318.453
267.576	129.438
270.951	69.1094
274.326	110.219
277.701	344.531
281.075	406.891
284.45	377.266
287.825	351.266
291.2	702.891
294.575	539.172
297.95	436.219
301.324	203.5
304.699	248.469
308.074	65.4375
311.449	338.594
314.824	414.594
318.198	367.172
321.573	246.422
324.948	82.3594
328.323	352.344
331.698	137.469
335.072	194.719
338.447	66.6875
341.822	469.516
345.197	432.906
348.572	739.219
351.947	322.375
355.321	599.656
358.696	438.328
362.071	410.844
365.446	236.438
368.821	405.453
372.195	337.594
375.57	280.234
378.945	516.453
382.32	259.031
385.695	432
389.07	362.5
392.444	249.344
395.819	477.938
399.194	191.844
402.569	148.531
405.944	30.9062
409.318	18.6562
412.693	214.062
416.068	204.641
419.443	57.4531
422.818	445.266
426.192	358.781
429.567	310.75
432.942	314.422
436.317	603.094
439.692	453.219
443.067	899.359
446.441	1045.45
449.816	823.844
453.191	917.891
456.566	731.203
459.941	1128.22
463.315	1128.19
466.69	304.672
470.065	845.109
473.44	1123.23
476.815	884.141
480.19	767.516
483.564	421.391
486.939	622.531
490.314	590.609
493.689	430.047
497.064	888.703
500.438	244.875
503.813	849.703
507.188	657.062
510.563	656.5
513.938	704.047
517.313	539.594
520.687	106.062
524.062	224.797
527.437	231.859
530.812	140.234
534.187	424.688
537.562	249.234
540.936	41.0312
544.311	21.3438
547.686	222.062
551.061	16.2656
554.436	281.297
557.81	21.7188
561.185	211.609
564.56	244.25
567.935	208.203
571.31	70.1875
574.684	270.984
578.059	239.312
581.434	103.797
584.809	132.266
588.184	341.812
591.558	645.828
594.933	360.891
598.308	719.266
601.683	384.766
605.058	458.172
608.433	166.312
611.807	541.625
615.182	81.4375
618.557	226.484
621.932	63.2812
625.307	223.578
628.682	720.203
632.056	573.219
635.431	741.797
638.806	615.906
642.181	781.797
645.556	859.703
648.93	603.516
652.305	688.859
655.68	274.094
659.055	789.531
662.43	626.672
665.804	925.906
669.179	1465.55
672.554	1730
675.929	1771.17
679.304	1093.64
682.679	553.531
686.053	450.359
689.428	86.6562
692.803	135.141
696.178	180.328
699.553	169.5
702.928	128.984
706.302	280.156
709.677	491.172
713.052	384.406
716.427	528.578
719.802	533.328
723.176	243.062
726.551	36.7031
729.926	441.062
733.301	689.766
736.676	303.531
740.051	456.438
743.425	191.891
746.8	253.781
750.175	662.594
753.55	654.922
756.925	568.156
760.299	99.1094
763.674	67.4062
767.049	137.844
770.424	74.9531
773.799	85.4375
777.173	312.953
780.548	235.547
783.923	309.531
787.298	458.156
790.673	385.562
794.048	856.188
797.422	711.344
800.797	280.812
804.172	400.172
807.547	866.531
810.922	777.422
814.296	546.703
817.671	990.922
821.046	988.547
824.421	1073.3
827.796	615.656
831.17	1035.23
834.545	702.703
837.92	979.031
841.295	525.359
844.67	620.578
848.045	961.609
851.419	926.172
854.794	636.906
858.169	837.438
861.544	611.797
864.919	533.391
868.293	511.156
871.668	624.516
875.043	938.25
878.418	516.266
881.793	430.328
885.168	621.109
888.542	369.875
891.917	468.594
895.292	0.875
898.667	73.4062
902.042	109.578
905.417	347.359
908.791	429.516
912.166	425.234
915.541	384.797
918.916	306.453
922.291	396.859
925.665	184.156
929.04	371.391
932.415	901.141
935.79	143.922
939.165	438.047
942.539	423.797
945.914	310.609
949.289	472.859
952.664	402.266
956.039	649.375
959.414	412.953
962.788	396.297
966.163	186.078
969.538	99.2031
972.913	25.625
976.288	12.375
979.663	191.344
983.037	125.688
986.412	99.4688
989.787	707.281
993.162	289.906
996.537	441.109
999.911	687.906
1003.29	90.5938
1006.66	537.75
1010.04	663.875
1013.41	848.5
1016.78	928.203
1020.16	698.797
1023.53	706.406
1026.91	732.812
1030.29	1101.23
1033.66	1252.14
1037.03	1446.2
1040.41	866.5
1043.78	822.219
1047.16	434.828
1050.53	830.297
1053.91	772
1057.28	833.672
1060.66	1053.84
1064.03	1098.95
1067.41	945.031
1070.78	1054.12
1074.16	733.688
1077.53	549.141
1080.91	503.141
1084.28	825.812
1087.66	315.766
1091.03	754.438
1094.41	861.375
1097.78	207.188
1101.16	82.3281
1104.53	277.906
1107.91	577.203
1111.28	780.969
1114.65	76.3906
1118.03	257.328
1121.4	314.656
1124.78	146.656
1128.15	45.7969
1131.53	64
1134.9	456.844
1138.28	580.109
1141.65	297.188
1145.03	463
1148.4	688.125
1151.78	453.859
1155.15	710.375
1158.53	519.156
1161.9	805.125
1165.28	910.672
1168.65	1086.12
1172.03	852.297
1175.4	1243.53
1178.78	1217.73
1182.15	1129.38
1185.53	1280.45
1188.9	1145.33
1192.28	1695.94
1195.65	1366.81
1199.03	1200.84
1202.4	1202.77
1205.78	1119.64
1209.15	807.203
1212.53	1070.7
1215.9	1133.39
1219.27	679.375
1222.65	791.688
1226.02	712.312
1229.4	783.484
1232.77	707.328
1236.15	960.984
1239.52	11.0625
1242.9	30.8125
1246.27	251.234
1249.65	216.016
1253.02	388.094
1256.4	403.062
1259.77	504.109
1263.15	550.156
1266.52	784.578
1269.9	379
1273.27	143.391
1276.65	5.71875
1280.02	194.297
1283.4	400.656
