Measurement: Raman, 780 nm, unoriented, Raman Data Processed
Mineral: Tremolite
Rruff sample: R050167
Ideal chemistry: [box]Ca_2_Mg_5_Si_8_O_22_(OH)_2_
Locality: Hunza Valley, Afghanistan
Source: Marcus Origlieri
Description: Green tabular crystals
Measured chemistry: ([box]_0.90_Na_0.10_)(Ca_0.98_Mg_0.01_Fe^2+^_0.01_)_2_(Mg_0.94_Al_0.06_)_5_(Si_0.95_Al_0.05_)_8_O_22_((OH)_0.98_F_0.02_)_2_
Raman shift (cm-1)	intensity
140.714	0
143.607	168.875
146.5	311.984
149.392	30.8438
152.285	127.719
155.178	515.125
158.07	716.531
160.963	1137.61
163.856	834.281
166.749	765.81
169.641	673.139
172.534	575.016
175.427	1008.36
178.319	1712.62
181.212	1251.12
184.105	786.875
186.997	351.141
189.89	244.734
192.783	118.016
195.675	25.3125
198.568	118.672
201.461	346.266
204.354	392.312
207.246	222.797
210.139	193.203
213.032	771.578
215.924	668
218.817	1202.2
221.71	1746.42
224.602	1889.33
227.495	1556.38
230.388	1327.3
233.281	1991.23
236.173	1855.55
239.066	1477.98
241.959	1326.77
244.851	1165.67
247.744	1173.67
250.637	1387.25
253.53	1091.38
256.422	578.156
259.315	426.031
262.208	687.531
265.1	589.984
267.993	274.734
270.886	351.375
273.778	292.125
276.671	97.7812
279.564	38
282.457	263.344
285.349	208.656
288.242	87.4375
291.135	569.844
294.027	504.719
296.92	595.125
299.813	518
302.705	310.562
305.598	328.031
308.491	280.406
311.384	533.812
314.276	509.906
317.169	819.219
320.062	779.25
322.954	974.438
325.847	650.875
328.74	472.438
331.632	1183
334.525	1207.34
337.418	1529.41
340.31	2124.5
343.203	2593.28
346.096	2961.09
348.989	2929.5
351.881	3222.66
354.774	2874.25
357.667	2294.59
360.559	2290.34
363.452	1770.91
366.345	1527.34
369.238	1972.84
372.13	2154.12
375.023	1364.22
377.916	832.5
380.808	623.125
383.701	931.75
386.594	647.281
389.486	1114.75
392.379	1569.53
395.272	2118.91
398.164	1576.06
401.057	925.156
403.95	670.5
406.843	294.75
409.735	499.594
412.628	510.812
415.521	505.062
418.413	165.406
421.306	260.688
424.199	21.0625
427.091	118.531
429.984	81.5312
432.877	625.938
435.77	364.031
438.662	609.969
441.555	413.281
444.448	721.781
447.34	403.531
450.233	224.969
453.126	711.188
456.019	902.125
458.911	942.406
461.804	1127.78
464.697	1178.88
467.589	1113.22
470.482	1853.34
473.375	1440.97
476.267	1599.5
479.16	1115.97
482.053	973.594
484.945	1232.53
487.838	809.375
490.731	738.375
493.624	788.938
496.516	981.75
499.409	895.875
502.302	656.844
505.194	921.375
508.087	597.156
510.98	484.469
513.872	729.438
516.765	798.406
519.658	414.594
522.551	253.094
525.443	244.5
528.336	608.312
531.229	317.75
534.121	301.562
537.014	59.2812
539.907	133.938
542.799	506.125
545.692	106.156
548.585	172.188
551.478	152.125
554.37	25.7812
557.263	791.062
560.156	1015
563.048	572.156
565.941	438.875
568.834	817.281
571.726	960.469
574.619	734.719
577.512	816.844
580.405	714.469
583.297	654.25
586.19	497.75
589.083	713.344
591.975	1065.78
594.868	795.844
597.761	372.844
600.653	734.719
603.546	196.844
606.439	773.156
609.332	338.062
612.224	376.156
615.117	602
618.01	606.344
620.902	149.875
623.795	65.9688
626.688	391.688
629.58	802.812
632.473	555.562
635.366	748.781
638.259	559.031
641.151	528.344
644.044	571.094
646.937	383.531
649.829	939.469
652.722	816.312
655.615	1389.12
658.507	1840.5
661.4	2522
664.293	2753.09
667.186	3975.53
670.078	5984.44
672.971	7013.41
675.864	6040.91
678.756	3922.94
681.649	2130.28
684.542	1220.09
687.434	1000.5
690.327	886.5
693.22	942.625
696.112	906.094
699.005	571.469
701.898	298.312
704.791	185
707.683	298.969
710.576	850.469
713.469	85.1875
716.361	344.375
719.254	96
722.147	569.188
725.04	619.75
727.932	288.875
730.825	23.5312
733.718	334.312
736.61	284.25
739.503	565.219
742.396	262.875
745.288	435.094
748.181	26.875
751.074	744.062
753.967	509.281
756.859	110.906
759.752	5.03125
762.645	110
765.537	204.5
768.43	26.625
771.323	26.5312
774.216	227.719
777.108	145.188
780.001	31.7188
782.894	309.625
785.786	224.312
788.679	306.219
791.572	351.094
794.464	140.656
797.357	764.094
800.25	450.094
803.143	177.25
806.035	74.0312
808.928	962.812
811.821	1125.44
814.713	885.938
817.606	945.156
820.499	585.375
823.391	783.812
826.284	1267.38
829.177	987.375
832.069	1352.94
834.962	1274.91
837.855	1488.31
840.748	1475
843.64	1830.94
846.533	999.188
849.426	1241.91
852.318	1198.94
855.211	970.531
858.104	1097.53
860.996	765.906
863.889	648.281
866.782	732.375
869.675	689.469
872.567	512.344
875.46	393.75
878.353	424.156
881.245	122.812
884.138	167.312
887.031	545.844
889.923	347.5
892.816	545.406
895.709	581.656
898.602	131.125
901.494	236.812
904.387	292.188
907.28	490.531
910.172	546.25
913.065	455.031
915.958	1056.94
918.85	1118.38
921.743	995.219
924.636	1250.25
927.529	1058.47
930.421	1180.56
933.314	997.5
936.207	391.531
939.099	417.75
941.992	1128.84
944.885	1215.66
947.777	577.094
950.67	751.906
953.563	421.344
956.456	641.906
959.348	680.188
962.241	844.562
965.134	694.562
968.026	738.469
970.919	322.094
973.812	193.156
976.704	200.594
979.597	81.875
982.49	101.719
985.383	11
988.275	176.438
991.168	185.656
994.061	599.781
996.953	883.5
999.846	455.781
1002.74	702.406
1005.63	738.688
1008.52	908.438
1011.42	824.125
1014.31	770.594
1017.2	1109.09
1020.1	1168.81
1022.99	1146.47
1025.88	1080.59
1028.77	1091.22
1031.67	1367.97
1034.56	1180.72
1037.45	1313.88
1040.34	1029.28
1043.24	805.312
1046.13	711.031
1049.02	926.688
1051.91	1356.5
1054.81	1307.81
1057.7	1572.59
1060.59	1428.38
1063.48	1651.38
1066.38	1106.62
1069.27	1258.5
1072.16	711.625
1075.06	393.438
1077.95	718.75
1080.84	344.969
1083.73	422.594
1086.63	522.344
1089.52	673.344
1092.41	575.406
1095.31	544.812
1098.2	84.5
1101.09	362.406
1103.98	10
1106.88	55.8438
1109.77	136.75
1112.66	744.031
1115.55	139.969
1118.45	51.8438
1121.34	331.719
1124.23	97.1875
1127.12	15.5
1130.02	457.844
1132.91	1071.31
1135.8	1960.56
1138.7	1822.66
1141.59	2538.53
1144.48	2709.25
1147.37	2966.09
1150.27	3584.25
1153.16	3632.47
1156.05	3787.28
1158.94	5045.38
1161.84	5294.41
1164.73	5607.75
1167.62	5641.56
1170.52	5005.91
1173.41	4988.72
1176.3	5392.88
1179.19	5779.58
1182.09	5551.33
1184.98	5292.61
1187.87	5042.61
1190.76	5365.61
1193.66	5205.7
1196.55	4997.19
1199.44	5094.39
1202.34	4487.55
1205.23	4128.8
1208.12	4328.36
1211.01	3581.91
1213.91	3469.62
1216.8	2971.36
1219.69	2128.16
1222.58	2076.89
1225.48	1408.77
1228.37	1354.42
1231.26	961.844
1234.15	908.438
1237.05	683.125
1239.94	614.703
1242.83	531.125
1245.72	139.844
1248.62	209.309
1251.51	312.169
1254.4	281.984
1257.3	45.2812
1260.19	161.703
1263.08	541.359
1265.97	839.703
1268.87	855.047
1271.76	619.257
1274.65	708.236
1277.55	490.766
1280.44	344.891
1283.33	127.391
1286.22	58.875
