Measurement: Raman, 532 nm, unoriented, Raman Data Processed
Mineral: Tritomite-(Ce)
Rruff sample: R060046
Ideal chemistry: Ce_5_(SiO_4_,BO_4_)_3_(OH,O)
Locality: Langesundfjord, Norway
Source: University of Arizona Mineral Museum
Description: Aggregate of orange coarse amorphous fragments
Measured chemistry: (Ca_1.90_Sr_0.10_)_Σ=2_(Ce_0.91_La_0.91_Th_0.75_Zr_0.20_[box]_0.13_Fe^2+^_0.10_)_Σ=3_((SiO_4_)_2.45_(BO_4_)_0.55_)_Σ=3_(OH)
Raman shift (cm-1)	intensity
177.143	0
180.035	15.8818
182.928	97.0254
185.821	24.5049
188.713	142.017
191.606	86.6562
194.499	106.435
197.391	100.786
200.284	0.176758
203.177	43.2568
206.07	25.0518
208.962	33.3496
211.855	26.3652
214.748	84.9795
217.64	36.8301
220.533	91.6973
223.426	34.4463
226.318	70.1113
229.211	145.462
232.104	56.8418
234.996	0.265625
237.889	150.754
240.782	100.475
243.675	122.492
246.567	128.303
249.46	58.2773
252.353	129.884
255.245	86.4561
258.138	71.375
261.031	84.3867
263.923	180.217
266.816	9.88477
269.709	156.261
272.602	51.2246
275.494	47.7315
278.387	10.6133
281.28	91.7686
284.173	61.3779
287.065	29.4102
289.958	5.64258
292.851	27.0752
295.743	31.7725
298.636	58.0947
301.529	1.98242
304.421	35.831
307.314	37.2734
310.207	4.33984
313.099	46.1728
315.992	69.2363
318.885	35.9502
321.778	38.501
324.67	79.4727
327.563	122.787
330.456	104.445
333.348	35.3408
336.241	68.3037
339.134	95.1914
342.026	65.0801
344.919	78.6367
347.812	152.207
350.705	43.3525
353.597	134.117
356.49	138.988
359.383	140.623
362.275	12.499
365.168	88.9268
368.061	86.7188
370.954	179.567
373.846	55.3535
376.739	69.2959
379.632	123.419
382.524	36.0596
385.417	115.556
388.31	152.022
391.202	138.624
394.095	163.087
396.988	188.878
399.88	256.65
402.773	143.001
405.666	257.36
408.559	191.314
411.451	206.102
414.344	213.579
417.237	127.294
420.129	199.242
423.022	197.181
425.915	183.718
428.808	147.909
431.7	170.291
434.593	128.224
437.486	221.895
440.378	222.48
443.271	351.668
446.164	350.513
449.056	439.821
451.949	584.582
454.842	584.809
457.735	592.001
460.627	656.204
463.52	577.094
466.413	614.366
469.305	596.429
472.198	555.474
475.091	521.422
477.983	306.065
480.876	408.685
483.769	250.833
486.661	289.057
489.554	155.716
492.447	134.763
495.34	58.9277
498.232	104.059
501.125	20.7812
504.018	89.0576
506.911	41.2012
509.803	209.695
512.696	274.332
515.589	214.845
518.481	284.169
521.374	220.999
524.267	506.249
527.159	483.723
530.052	496.062
532.945	460.146
535.837	380.67
538.73	513.521
541.623	542.524
544.516	362.636
547.408	509.754
550.301	528.097
553.194	503.183
556.086	393.441
558.979	456.175
561.872	360.301
564.764	318.827
567.657	416.557
570.55	236.665
573.443	326.431
576.335	74.4688
579.228	134.689
582.121	195.896
585.013	321.779
587.906	52.3931
590.799	30.2129
593.692	169.841
596.584	43.7778
599.477	192.725
602.37	177.424
605.262	28.2349
608.155	62.3389
611.048	101.918
613.94	23.3174
616.833	20.1562
619.726	122.353
622.619	52.3145
625.511	92.0908
628.404	110.745
631.297	122.598
634.189	67.5913
637.082	202.36
639.975	211.561
642.867	241.706
645.76	68.8066
648.653	246.161
651.545	259.185
654.438	220.323
657.331	175.198
660.224	365.699
663.116	265.924
666.009	325.098
668.902	286.304
671.794	289.322
674.687	303.147
677.58	229.997
680.472	293.525
683.365	218.127
686.258	210.209
689.151	171.041
692.043	139.115
694.936	161.111
697.829	148.17
700.721	175.281
703.614	89.1807
706.507	216.567
709.399	256.023
712.292	296.273
715.185	161.691
718.078	246.159
720.97	186.816
723.863	284.889
726.756	264.946
729.648	255.102
732.541	258.788
735.434	252.715
738.327	261.513
741.219	341.901
744.112	227.904
747.005	403.127
749.897	293.295
752.79	248.775
755.683	270.031
758.576	279.465
761.468	270.665
764.361	189.891
767.254	188.09
770.146	184.094
773.039	214.455
775.932	193.751
778.824	184.009
781.717	131.753
784.61	103.338
787.503	25.6992
790.395	39.2647
793.288	40.7583
796.181	15.9355
799.073	15.2783
801.966	26.083
804.859	21.4775
807.751	27.5869
810.644	44.1494
813.537	79.7881
816.429	114.811
819.322	110.999
822.215	288.659
825.108	269.25
828	283.201
830.893	422.054
833.786	478.346
836.678	511.228
839.571	621.453
842.464	553.915
845.356	653.889
848.249	677.073
851.142	683.673
854.035	564.755
856.927	591.066
859.82	515.913
862.713	425.356
865.605	361.252
868.498	262.295
871.391	187.407
874.284	89.9912
877.176	102.856
880.069	42.519
882.962	51.1099
885.854	24.9165
888.747	30.1094
891.64	1.6792
894.533	100.63
897.425	58.352
900.318	37.8955
903.211	156.276
906.103	193.539
908.996	240.985
911.889	218.23
914.781	262.489
917.674	338.212
920.567	374.069
923.46	348.558
926.352	465.832
929.245	445.935
932.138	562.21
935.03	531.5
937.923	697.932
940.816	716.296
943.708	726.861
946.601	781.333
949.494	692.937
952.386	724.13
955.279	603.544
958.172	473.092
961.065	492.252
963.957	403.205
966.85	218.061
969.743	200.092
972.635	268.656
975.528	238.448
978.421	255.655
981.313	187.452
984.206	165.291
987.099	135.167
989.992	240.704
992.884	226.099
995.777	226.647
998.67	250.151
1001.56	160.128
1004.46	253.531
1007.35	185.658
1010.24	206.067
1013.13	254.762
1016.03	209.06
1018.92	229.718
1021.81	240.853
1024.7	260.455
1027.6	159.954
1030.49	220.198
1033.38	245.105
1036.28	213.391
1039.17	150.754
1042.06	123.419
1044.95	168.792
1047.85	111.936
1050.74	66.5356
1053.63	65.2178
1056.52	133.995
1059.42	86.7095
1062.31	82.1382
1065.2	105.02
1068.09	66.0161
1070.99	57.6645
1073.88	48.1992
1076.77	43.0493
1079.66	51.9399
1082.56	2.8081
1085.45	22.0459
1088.34	52.1001
1091.24	10.0793
1094.13	13.0781
1097.02	13.7402
1099.91	20.8381
1102.81	45.9475
1105.7	11.8694
1108.59	6.08081
1111.48	6.74731
1114.38	7.75464
1117.27	1.30591
1120.16	26.2502
1123.06	23.2017
1125.95	42.6174
1128.84	24.8159
1131.73	98.4377
1134.63	134.34
1137.52	67.9665
1140.41	130.046
1143.31	155.858
1146.2	163.103
1149.09	198.537
1151.98	184.804
1154.88	178.372
1157.77	173.166
1160.66	212.305
1163.55	233.461
1166.45	317.878
1169.34	160.304
1172.23	243.519
1175.12	279.151
1178.02	256.496
1180.91	259.032
1183.8	337.049
1186.69	282.839
1189.59	251.894
1192.48	162.721
1195.37	225.504
1198.27	201.275
1201.16	186.783
1204.05	233.537
1206.94	253.496
1209.84	222.223
1212.73	236.342
1215.62	249.659
1218.52	126.191
1221.41	237.593
1224.3	202.061
1227.19	202.288
1230.09	131.042
1232.98	75.0906
1235.87	159.45
1238.76	119.193
1241.66	8.00977
1244.55	180.895
1247.44	60.854
1250.34	108.141
1253.23	119.679
1256.12	104.172
1259.01	88.271
1261.91	55.1963
1264.8	90.4133
1267.69	54.2454
1270.58	47.1477
1273.48	44.1709
1276.37	87.8208
1279.26	56.5081
1282.15	49.0271
1285.05	33.7627
1287.94	55.0147
1290.83	69.0669
1293.72	93.5852
1296.62	36.5344
1299.51	168.56
1302.4	56.165
1305.3	98.6553
1308.19	171.977
1311.08	42.1096
1313.97	59.917
