Measurement: Raman, 532 nm, unoriented, Raman Data Processed
Mineral: Troilite
Rruff sample: R070213
Ideal chemistry: Fe^2+^S^2-^
Locality: Bjurbole Borga, Nyland, Finland
Source: Michael Scott
Description: Dark gray to tarnished brown metallic grains found in a chondrite meteorite class L4, that fell on March 12, 1899
Raman shift (cm-1)	intensity
184.374	0
187.267	5.80542
190.16	16.959
193.052	34.2377
195.945	30.1674
198.838	43.3789
201.731	31.7208
204.623	30.1633
207.516	42.7399
210.409	38.9196
213.301	29.4774
216.194	5.44324
219.087	6.50171
221.979	32.7808
224.872	35.202
227.765	24.1626
230.657	14.831
233.55	40.0633
236.443	29.4907
239.336	31.6278
242.228	30.0176
245.121	13.6053
248.014	51.6821
250.906	29.0551
253.799	40.7776
256.692	34.9116
259.584	36.3584
262.477	28.0076
265.37	7.48511
268.263	43.6166
271.155	18.4515
274.048	18.9828
276.941	5.55859
279.833	38.6251
282.726	4.26013
285.619	24.611
288.512	6.82092
291.404	51.1509
294.297	21.822
297.19	15.6001
300.082	10.3143
302.975	17.3945
305.868	11.5165
308.76	12.4738
311.653	11.9331
314.546	37.6273
317.438	0.129883
320.331	4.60449
323.224	26.484
326.117	19.9498
329.009	7.72095
331.902	19.7573
334.795	29.9202
337.687	29.3438
340.58	13.932
343.473	34.4111
346.365	19.219
349.258	4.04236
352.151	10.6038
355.044	8.01013
357.936	6.84912
360.829	9.60059
363.722	22.3397
366.614	7.36438
369.507	29.6255
372.4	6.35815
375.293	18.4906
378.185	11.834
381.078	25.1538
383.971	51.3282
386.863	2.35791
389.756	10.9428
392.649	29.2258
395.541	16.8137
398.434	18.5077
401.327	6.33838
404.219	48.3852
407.112	1.02502
410.005	15.6448
412.898	20.2305
415.79	33.8929
418.683	31.1532
421.576	67.5455
424.469	25.2715
427.361	3.37122
430.254	29.9357
433.147	28.2255
436.039	45.8209
438.932	44.7633
441.825	24.7577
444.717	25.3037
447.61	28.277
450.503	7.12793
453.396	33.0837
456.288	27.87
459.181	32.9138
462.074	6.11658
464.966	36.6998
467.859	7.32678
470.752	51.2235
473.644	56.7179
476.537	28.3917
479.43	21.9898
482.322	51.1299
485.215	27.3823
488.108	22.1221
491.001	2.46179
493.893	1.52356
496.786	63.1865
499.679	10.0117
502.571	28.0458
505.464	23.0181
508.357	27.8396
511.25	18.5964
514.142	13.3649
517.035	15.9695
519.928	30.2082
522.82	38.5008
525.713	24.6102
528.606	6.17517
531.498	5.30017
534.391	40.4552
537.284	27.2281
540.177	18.8524
543.069	9.30469
545.962	28.3887
548.855	40.3047
551.747	42.5514
554.64	22.8309
557.533	13.589
560.425	5.53589
563.318	11.2527
566.211	20.8554
569.104	21.5306
571.996	20.0083
574.889	16.9005
577.782	5.27271
580.674	26.2289
583.567	17.7648
586.46	34.4275
589.352	45.3987
592.245	19.5649
595.138	9.16687
598.031	38.7855
600.923	17.6935
603.816	0.202637
606.709	0.517334
609.601	8.45898
612.494	33.9741
615.387	40.0168
618.279	11.5703
621.172	36.0005
624.065	55.8102
626.958	27.7412
629.85	16.3156
632.743	12.907
635.636	0.617188
638.528	6.97742
641.421	34.2987
644.314	17.7508
647.207	31.3344
650.099	19.5706
652.992	6.6604
655.885	10.4058
658.777	59.8872
661.67	21.7626
664.563	32.6625
667.455	65.4575
670.348	57.5026
673.241	40.6176
676.134	54.8757
679.026	41.2833
681.919	73.8369
684.812	70.803
687.704	45.985
690.597	62.334
693.49	85.5015
696.382	77.4656
699.275	82.6423
702.168	49.2437
705.061	84.5035
707.953	93.8181
710.846	74.1064
713.739	89.1382
716.631	79.3003
719.524	65.1807
722.417	95.7319
725.309	82.4273
728.202	64.5869
731.095	85.3048
733.987	74.3934
736.88	68.686
739.773	63.082
742.666	59.3959
745.558	46.7737
748.451	35.7931
751.344	49.0193
754.236	66.5178
757.129	43.0721
760.022	41.5238
762.915	25.7404
765.807	21.3827
768.7	13.5504
771.593	16.9213
774.485	46.9226
777.378	29.8474
780.271	28.0879
783.163	42.078
786.056	9.57165
788.949	0.629517
791.842	7.34827
794.734	3.4707
797.627	24.0207
800.52	44.1118
803.412	12.0217
806.305	1.29785
809.198	24.7661
812.091	11.0071
814.983	28.9019
817.876	23.1195
820.769	46.895
823.661	4.73572
826.554	18.0785
829.447	31.8425
832.339	45.8397
835.232	45.1783
838.125	78.8487
841.018	64.7699
843.91	69.5419
846.803	52.6906
849.696	80.0051
852.588	70.9503
855.481	76.0228
858.374	84.1269
861.266	90.6503
864.159	55.7466
867.052	79.2778
869.944	63.2659
872.837	79.178
875.73	50.2163
878.623	52.1329
881.515	39.6904
884.408	95.8163
887.301	46.9546
890.193	37.5497
893.086	26.4175
895.979	3.95776
898.871	38.6149
901.764	27.2557
904.657	7.46948
907.55	33.881
910.442	6.32727
913.335	26.0521
916.228	3.10095
919.12	27.2953
922.013	14.1346
924.906	23.0605
927.798	53.845
930.691	46.3583
933.584	49.7053
936.477	31.4857
939.369	35.1838
942.262	53.8203
945.155	50.401
948.047	46.7211
950.94	52.7518
953.833	18.6405
956.726	53.063
959.618	27.4226
962.511	28.7206
965.404	35.5986
968.296	64.0057
971.189	52.4228
974.082	9.52429
976.974	32.1814
979.867	43.5781
982.76	27.4187
985.653	23.1891
988.545	47.6152
991.438	56.7175
994.331	22.9735
997.223	24.9512
1000.12	54.4087
1003.01	62.658
1005.9	49.0071
1008.79	74.9265
1011.69	40.8489
1014.58	21.6619
1017.47	49.5393
1020.37	1.29834
1023.26	34.4102
1026.15	9.50146
1029.04	47.8008
1031.94	57.5754
1034.83	12.9089
1037.72	74.5251
1040.61	32.9907
1043.51	14.5415
1046.4	21.3245
1049.29	31.7947
1052.18	24.7737
1055.08	8.82056
1057.97	36.3196
1060.86	35.8926
1063.76	7.01978
1066.65	75.5872
1069.54	15.8596
1072.43	0.215576
1075.33	13.1157
1078.22	29.6333
1081.11	15.5962
1084	36.4866
1086.9	48.9336
1089.79	21.011
1092.68	27.613
1095.58	32.6001
1098.47	5.67798
1101.36	52.0408
1104.25	29.4243
1107.15	38.8789
1110.04	17.8784
1112.93	7.63257
1115.82	36.5178
1118.72	56.7432
1121.61	22.8757
1124.5	44.0637
1127.39	44.5171
1130.29	6.69824
1133.18	16.5291
1136.07	20.4236
1138.97	47.9658
1141.86	33.5129
1144.75	75.4893
1147.64	37.3186
1150.54	38.4817
1153.43	37.1016
1156.32	56.8491
1159.21	39.9321
1162.11	61.1704
1165	55.6536
1167.89	54.2844
1170.79	36.9568
1173.68	50.0879
1176.57	20.6675
1179.46	61.5457
1182.36	16.6572
1185.25	47.406
1188.14	36.4163
1191.03	9.58838
1193.93	65.0769
1196.82	30.2305
1199.71	92.2727
1202.61	19.7241
1205.5	7.85449
1208.39	54.9053
1211.28	24.9546
1214.18	45.0601
1217.07	38.2307
1219.96	48.8115
1222.85	97.0823
1225.75	24.4539
1228.64	72.8157
1231.53	25.8572
1234.42	27.6648
1237.32	49.8345
1240.21	0.99707
1243.1	35.2107
1246	36.1406
1248.89	92.0449
1251.78	32.8687
1254.67	51.4941
1257.57	21.352
1260.46	8.73584
1263.35	36.1943
1266.24	64.376
1269.14	58.6494
1272.03	56.4673
1274.92	81.7627
1277.82	45.1558
1280.71	64.8911
1283.6	81.2891
1286.49	56.7012
1289.39	47.4902
1292.28	24.6519
1295.17	5.66113
1298.06	57.1333
1300.96	58.2642
1303.85	61.3774
1306.74	34.8726
