Measurement: Raman, 785 nm, unoriented, Raman Data Processed
Mineral: Troilite
Rruff sample: R070213
Ideal chemistry: Fe^2+^S^2-^
Locality: Bjurbole Borga, Nyland, Finland
Source: Michael Scott
Description: Dark gray to tarnished brown metallic grains found in a chondrite meteorite class L4, that fell on March 12, 1899
Raman shift (cm-1)	intensity
198.158	0
201.051	37.8616
203.944	20.5679
206.836	76.5166
209.729	41.4712
212.622	34.3662
215.514	2.49463
218.407	29.4753
221.3	31.7368
224.192	61.8093
227.085	35.6323
229.978	41.9365
232.87	57.3064
235.763	35.9043
238.656	28.7429
241.549	51.2144
244.441	36.5559
247.334	58.5371
250.227	56.2949
253.119	39.8442
256.012	31.6172
258.905	61.9773
261.798	12.8648
264.69	7.29199
267.583	20.8162
270.476	23.9895
273.368	6.74487
276.261	38.1457
279.154	3.54541
282.046	9.01709
284.939	34.2812
287.832	17.0776
290.724	37.4697
293.617	40.8565
296.51	41.0513
299.403	23.0847
302.295	2.9375
305.188	36.7537
308.081	8.78027
310.973	22.7441
313.866	42.7422
316.759	33.2109
319.651	65.5964
322.544	23.4651
325.437	0.012695
328.33	4.90991
331.222	36.8965
334.115	52.3455
337.008	43.3821
339.9	46.6309
342.793	15.7058
345.686	23.145
348.579	52.9099
351.471	38.0671
354.364	9.12231
357.257	25.8589
360.149	9.27148
363.042	32.3638
365.935	37.2217
368.827	49.8408
371.72	48.3955
374.613	16.592
377.505	51.1489
380.398	59.2835
383.291	15.9412
386.184	75.5371
389.076	41.7773
391.969	5.69653
394.862	48.7117
397.754	70.3914
400.647	46.093
403.54	58.9624
406.433	33.4668
409.325	37.9009
412.218	46.115
415.111	39.8508
418.003	42.0395
420.896	46.1887
423.789	53.1152
426.681	48.4727
429.574	26.8574
432.467	30.8374
435.36	42.1033
438.252	30.0137
441.145	5.65308
444.038	39.2036
446.93	39.7161
449.823	80.8762
452.716	61.8291
455.608	33.9072
458.501	1.72192
461.394	22.2468
464.286	34.0295
467.179	34.4131
470.072	55.9395
472.965	12.145
475.857	17.5171
478.75	51.5354
481.643	3.10254
484.535	54.0085
487.428	34.8157
490.321	10.8406
493.214	45.7471
496.106	58.646
498.999	0.640625
501.892	7.75708
504.784	25.79
507.677	21.3669
510.57	31.4824
513.462	12.2869
516.355	7.71265
519.248	54.1626
522.14	13.8105
525.033	30.7961
527.926	7.92896
530.819	39.4636
533.711	20.3377
536.604	24.1316
539.497	56.6523
542.389	29.4861
545.282	24.4866
548.175	32.9932
551.067	4.22412
553.96	45.8782
556.853	3.39746
559.745	24.5105
562.638	13.0854
565.531	38.0583
568.424	28.8286
571.316	39.2666
574.209	51.2776
577.102	54.5356
579.994	29.4656
582.887	49.5928
585.78	30.3318
588.673	18.3762
591.565	5.5769
594.458	22.7234
597.351	8.23291
600.243	15.1191
603.136	19.947
606.029	6.75977
608.921	6.78223
611.814	31.3127
614.707	14.5879
617.6	15.2029
620.492	1.81811
623.385	1.7771
626.278	63.3381
629.17	45.5039
632.063	23.4644
634.956	10.6704
637.848	27.76
640.741	49.5862
643.634	11.0383
646.527	22.0078
649.419	54.4751
652.312	13.21
655.205	53.8264
658.097	66.9688
660.99	55.7651
663.883	43.9644
666.775	27.1504
669.668	55.7434
672.561	42.6035
675.454	60.4663
678.346	80.9219
681.239	64.7588
684.132	47.6489
687.024	100.135
689.917	77.4458
692.81	92.3696
695.702	98.4172
698.595	117.814
701.488	127.629
704.381	109.427
707.273	119.188
710.166	124.076
713.059	140.642
715.951	113.966
718.844	129.347
721.737	118.441
724.63	125.603
727.522	103.021
730.415	97.9316
733.308	137.679
736.2	93.9771
739.093	120.542
741.986	107.108
744.878	102.857
747.771	98.6594
750.664	86.5456
753.557	93.7881
756.449	52.9734
759.342	56.0688
762.235	41.5781
765.127	69.4976
768.02	23.1816
770.913	27.3223
773.805	58.2612
776.698	32.0557
779.591	7.65259
782.484	30.0852
785.376	10.7676
788.269	14.5503
791.162	12.0671
794.054	27.292
796.947	30.2554
799.84	22.8936
802.732	0.547363
805.625	9.48755
808.518	6.20557
811.41	12.3638
814.303	42.543
817.196	16.5247
820.089	34.8086
822.981	0.877197
825.874	33.7349
828.767	67.052
831.659	60.2593
834.552	81.5666
837.445	50.4993
840.337	38.1663
843.23	69.6953
846.123	39.9424
849.016	35.447
851.908	65.3865
854.801	65.7078
857.694	76.958
860.586	66.8347
863.479	67.02
866.372	107.985
869.264	57.2068
872.157	60.7156
875.05	73.769
877.943	65.5342
880.835	30.6765
883.728	43.2737
886.621	32.0515
889.513	54.0066
892.406	4.55713
895.299	30.1228
898.192	5.89258
901.084	11.5022
903.977	33.3015
906.87	11.3325
909.762	45.4507
912.655	9.88843
915.548	15.1685
918.44	12.7778
921.333	27.083
924.226	22.5598
927.119	8.63916
930.011	24.5825
932.904	39.4006
935.797	25.1697
938.689	13.7407
941.582	41.0422
944.475	19.0984
947.367	16.2029
950.26	21.8774
953.153	91.957
956.045	22.9692
958.938	58.532
961.831	50.564
964.724	45.0264
967.616	46.2295
970.509	45.7881
973.402	47.0486
976.294	9.5
979.187	42.5325
982.08	4.10962
984.972	57.6714
987.865	12.8628
990.758	7.78198
993.651	60.4199
996.543	19.9443
999.436	38.9822
1002.33	84.4697
1005.22	11.1428
1008.11	19.7398
1011.01	15.1931
1013.9	41.7502
1016.79	25.3887
1019.68	69.9734
1022.58	36.4133
1025.47	62.7903
1028.36	72.4905
1031.26	31.8369
1034.15	34.9158
1037.04	12.7315
1039.93	46.741
1042.83	24.9761
1045.72	40.189
1048.61	34.0647
1051.51	49.25
1054.4	4.68555
1057.29	27.2236
1060.18	39.8457
1063.08	48.5447
1065.97	46.7134
1068.86	61.8188
1071.75	18.1125
1074.65	61.6445
1077.54	14.0149
1080.43	71.1526
1083.32	27.6367
1086.22	33.3499
1089.11	24.8345
1092	58.2163
1094.89	35.373
1097.79	8.81201
1100.68	56.0574
1103.57	45.7761
1106.47	24.523
1109.36	13.0154
1112.25	13.999
1115.14	3.9729
1118.04	43.3889
1120.93	29.0469
1123.82	49.6377
1126.71	71.9629
1129.61	39.231
1132.5	71.0886
1135.39	43.6636
1138.29	32.291
1141.18	60.6489
1144.07	23.751
1146.96	62.1985
1149.86	56.2808
1152.75	30.8948
1155.64	16.2446
1158.53	49.3411
1161.43	42.1987
1164.32	37.8281
1167.21	62.6619
1170.11	2.02466
1173	79.4607
1175.89	81.8438
1178.78	48.4614
1181.68	43.4001
1184.57	47.342
1187.46	48.6877
1190.35	13.1533
1193.25	55.6411
1196.14	79.5962
1199.03	48.593
1201.92	46.2607
1204.82	87.239
1207.71	34.2964
1210.6	66.0139
1213.5	51.5322
1216.39	64.616
1219.28	25.7114
1222.17	19.3284
1225.07	63.5696
1227.96	5.22192
1230.85	17.7107
