Measurement: Raman, 780 nm, unoriented, Raman Data Processed
Mineral: Tundrite-(Ce)
Rruff sample: R130563
Ideal chemistry: Na_2_Ce^3+^_2_Ti^4+^O_2_SiO_4_(CO_3_)_2_
Locality: Poudrette quarry, Mount St. Hilaire, Quebec, Canada
Source: Don Doell
Description: Yellow bladed crystals, associated with white orthoclase
Raman shift (cm-1)	intensity
88.0644	0
91.4393	194.415
94.8141	347.259
98.1889	230.482
101.564	243.18
104.939	350.821
108.313	421.916
111.688	447.744
115.063	513.505
118.438	531.531
121.813	624.575
125.187	585.271
128.562	540.907
131.937	432.926
135.312	331.346
138.687	228.978
142.061	87.7036
145.436	40.3852
148.811	2.78931
152.186	25.4045
155.561	14.095
158.936	90.1543
162.31	170.697
165.685	395.544
169.06	548.211
172.435	681.687
175.81	782.08
179.185	1009.77
182.559	1057.22
185.934	1051.17
189.309	1105.48
192.684	1064.93
196.059	984.807
199.433	878.426
202.808	732.435
206.183	548.943
209.558	382.012
212.933	83.5674
216.308	12.3198
219.682	124.169
223.057	122.941
226.432	69.7666
229.807	13.8467
233.182	218.691
236.556	601.865
239.931	1001.6
243.306	1465.49
246.681	1991.53
250.056	2461.16
253.43	2937.01
256.805	3304.22
260.18	3696.51
263.555	4145.7
266.93	4927.28
270.305	5842.39
273.679	7022.15
277.054	8242.45
280.429	9345.13
283.804	9990.98
287.179	10003.7
290.553	10006.1
293.928	9699.69
297.303	9434.1
300.678	9427.23
304.053	9741.55
307.428	10117.1
310.802	10292.3
314.177	10160.7
317.552	9551.03
320.927	8673.5
324.302	7286.42
327.676	6083.67
331.051	4705.11
334.426	3620.94
337.801	2564.31
341.176	1802.46
344.551	1086.11
347.925	521.299
351.3	129.486
354.675	9.19629
358.05	162.568
361.425	241.825
364.8	111.907
368.174	89.3975
371.549	190.165
374.924	430.318
378.299	770.263
381.674	1122.86
385.048	1402.64
388.423	1602.42
391.798	1886.8
395.173	2152.03
398.548	2319.45
401.923	2690.3
405.297	2712.72
408.672	3043.59
412.047	3151.9
415.422	3490.74
418.796	3544.46
422.171	3887.07
425.546	4103.68
428.921	4122.41
432.296	4143.11
435.671	3945.06
439.045	3589.73
442.42	3168.39
445.795	2736.44
449.17	2315.43
452.545	1814.52
455.92	1428.58
459.294	1022.38
462.669	661.504
466.044	384.53
469.419	190.269
472.794	7.34082
476.168	130.276
479.543	106.696
482.918	178.778
486.293	102.19
489.668	10.5117
493.043	155.576
496.417	266.284
499.792	511.33
503.167	741.828
506.542	922.812
509.917	1147.25
513.291	1458.1
516.666	1665.69
520.041	1837.98
523.416	2153.14
526.791	2291.82
530.165	2482
533.54	2550.18
536.915	2624.93
540.29	2650.57
543.665	2676.97
547.04	2656.23
550.414	2664.02
553.789	2476.96
557.164	2337.8
560.539	2270.87
563.914	1959.45
567.288	1801.15
570.663	1479.03
574.038	1336.99
577.413	1219.54
580.788	1069.77
584.163	917.631
587.537	843.049
590.912	723.043
594.287	638.986
597.662	585.264
601.037	637.265
604.412	587.586
607.786	400.971
611.161	304
614.536	278.419
617.911	233.644
621.286	233.53
624.66	69.1162
628.035	125.824
631.41	105.958
634.785	152.564
638.16	250.285
641.534	222.897
644.909	309.208
648.284	326.534
651.659	277.813
655.034	334.506
658.409	283.66
661.783	227.291
665.158	216.033
668.533	192.622
671.908	163.114
675.283	92.4902
678.658	42.0635
682.032	6.69336
685.407	77.3291
688.782	109.583
692.157	5.69727
695.532	24.9287
698.906	45.7197
702.281	30.6572
705.656	141.935
709.031	249.208
712.406	398.144
715.78	573.767
719.155	682.703
722.53	790.287
725.905	1077.72
729.28	1279.96
732.654	1360.89
736.029	1518.63
739.404	1651.49
742.779	1854.81
746.154	1928.02
749.529	2006.41
752.903	2161.75
756.278	2235.2
759.653	2259.04
763.028	2284.54
766.403	2295.16
769.778	2372.59
773.152	2334.69
776.527	2155.36
779.902	2176.77
783.277	2069.74
786.652	1974.43
790.026	1791.87
793.401	1578.12
796.776	1446.41
800.151	1279.48
803.526	1114.48
806.9	933.268
810.275	760.442
813.65	636.713
817.025	476.543
820.4	372.797
823.775	255.931
827.149	190.358
830.524	147.615
833.899	75.7241
837.274	67.001
840.649	17.0479
844.024	9.83496
847.398	16.1775
850.773	32.0256
854.148	29.3328
857.523	11.512
860.898	22.4795
864.272	68.9951
867.647	23.6052
871.022	73.4739
874.397	66.0102
877.772	96.4814
881.146	107.849
884.521	133.068
887.896	117.619
891.271	136.523
894.646	163.883
898.021	205.952
901.395	163.243
904.77	191.226
908.145	189.513
911.52	206.898
914.895	171.965
918.269	137.828
921.644	97.9148
925.019	78.5923
928.394	51.748
931.769	107.694
935.144	58.9285
938.518	30.4067
941.893	58.6455
945.268	47.0842
948.643	106.552
952.018	32.4519
955.393	1.57617
958.767	1.00806
962.142	18.5774
965.517	2.72632
968.892	37.1604
972.266	21.5437
975.641	49.0579
979.016	16.7886
982.391	43.6741
985.766	4.88208
989.141	74.9634
992.515	45.531
995.89	19.2778
999.265	4.67334
1002.64	44.23
1006.01	21.4273
1009.39	4.30566
1012.76	9.75781
1016.14	78.166
1019.51	78.2925
1022.89	134.525
1026.26	167.529
1029.64	212.762
1033.01	326.794
1036.39	326.236
1039.76	359.638
1043.14	447.247
1046.51	585.935
1049.89	642.757
1053.26	735.005
1056.64	866.374
1060.01	1072.12
1063.39	1242.88
1066.76	1400.6
1070.14	1574.93
1073.51	1730.49
1076.89	2033.58
1080.26	2262.69
1083.63	2314.24
1087.01	2392.06
1090.38	2526.49
1093.76	2694.55
1097.13	2760.4
1100.51	2800.31
1103.88	2973.66
1107.26	3118.09
1110.63	3311.76
1114.01	3592.66
1117.38	4066.69
1120.76	4452.11
1124.13	4907.81
1127.51	5166.86
1130.88	5088.9
1134.26	4837.96
1137.63	4370.24
1141.01	3883.49
1144.38	3556.31
1147.76	2974.47
1151.13	2427.21
1154.51	1980.21
1157.88	1456.09
1161.26	980.836
1164.63	501.406
1168.01	108.693
1171.38	269.523
1174.76	683.863
1178.13	910.992
1181.51	1020.93
1184.88	872.156
1188.26	264.281
1191.63	695.07
1195.01	2445.59
1198.38	4908.78
1201.75	7989.79
1205.13	12430
1208.5	18196.8
1211.88	25905.3
1215.25	35818.3
1218.63	47777
1222	62436
1225.38	79549.1
1228.75	96561.8
1232.13	114426
1235.5	129517
1238.88	140449
1242.25	144994
1245.63	141050
1249	130935
1252.38	115220
1255.75	96588
1259.13	77858.6
1262.5	59060.8
1265.88	41984.8
1269.25	27153.4
1272.62	14492.3
1276	4636.96
1279.38	118.977
