Measurement: Raman, 780 nm, unoriented, Raman Data Processed
Mineral: Tundrite-(Nd)
Rruff sample: R130565
Ideal chemistry: Na_2_Nd^3+^_2_Ti^4+^O_2_(SiO_4_)(CO_3_)_2_
Locality: Ilimaussaq complex, Narsaq, Kitaa, Greenland
Source: Rock Currier
Description: Pale tan prismatic crystals associated with green to dark-green prismatic aegirine, white microcline, and pinkish fluorite.
Raman shift (cm-1)	intensity
88.0644	0
91.4393	71.1054
94.8141	122.605
98.1889	65.386
101.564	50.0078
104.939	69.3469
108.313	101.991
111.688	81.2539
115.063	46.0209
118.438	37.9766
121.813	36.3677
125.187	53.2004
128.562	54.5756
131.937	45.0283
135.312	30.6517
138.687	40.4031
142.061	37.1237
145.436	14.8273
148.811	38.2092
152.186	31.5196
155.561	11.2401
158.936	5.18671
162.31	14.3471
165.685	2.5744
169.06	23.5852
172.435	72.5822
175.81	108.163
179.185	132.868
182.559	137.884
185.934	151.088
189.309	162.424
192.684	159.284
196.059	174.564
199.433	164.434
202.808	140.078
206.183	126.405
209.558	92.9166
212.933	54.4515
216.308	21.241
219.682	7.17505
223.057	22.8975
226.432	33.696
229.807	21.4447
233.182	12.378
236.556	75.9838
239.931	157.174
243.306	234.675
246.681	316.915
250.056	427.529
253.43	527.951
256.805	638.404
260.18	738.144
263.555	846.704
266.93	954.652
270.305	1087.07
273.679	1265.8
277.054	1482.05
280.429	1703.22
283.804	1858.93
287.179	1938.99
290.553	1940.28
293.928	1917.65
297.303	1865.8
300.678	1830.15
304.053	1859.74
307.428	1904.1
310.802	1929.36
314.177	1935.1
317.552	1877.56
320.927	1733.94
324.302	1523.45
327.676	1283.06
331.051	1035.71
334.426	801.341
337.801	562.409
341.176	401.764
344.551	266.081
347.925	141.233
351.3	44.0185
354.675	9.26709
358.05	16.9416
361.425	31.0957
364.8	26.0169
368.174	14.2258
371.549	35.4419
374.924	88.9153
378.299	167.5
381.674	248.698
385.048	311.388
388.423	415.411
391.798	464.43
395.173	543.375
398.548	590.55
401.923	658.405
405.297	716.035
408.672	774.157
412.047	812.943
415.422	887.148
418.796	948.378
422.171	1001.3
425.546	1044.56
428.921	1076.23
432.296	1073.97
435.671	1031.94
439.045	956.775
442.42	864.033
445.795	744.535
449.17	631.684
452.545	516.462
455.92	398.638
459.294	298.338
462.669	214.322
466.044	141.708
469.419	104.568
472.794	89.3789
476.168	24.7771
479.543	2.33179
482.918	8.86865
486.293	43.5474
489.668	28.2417
493.043	2.83911
496.417	17.4206
499.792	34.6721
503.167	71.6555
506.542	113.452
509.917	182.114
513.291	231.784
516.666	235.336
520.041	236.285
523.416	270.637
526.791	270.595
530.165	311.278
533.54	343.96
536.915	376.509
540.29	369.188
543.665	370.3
547.04	338.463
550.414	345.685
553.789	346.919
557.164	305.528
560.539	300.455
563.914	260.759
567.288	214.842
570.663	174.36
574.038	159.145
577.413	118.96
580.788	94.5371
584.163	85.3174
587.537	62.8752
590.912	50.5935
594.287	27.5852
597.662	33.9192
601.037	40.7583
604.412	34.1738
607.786	10.3565
611.161	28.127
614.536	12.9465
617.911	24.3503
621.286	25.6055
624.66	22.623
628.035	10.824
631.41	19.0676
634.785	27.6431
638.16	31.5977
641.534	55.0068
644.909	57.0918
648.284	82.4956
651.659	86.1025
655.034	105.628
658.409	103.214
661.783	112.654
665.158	111.077
668.533	105.934
671.908	82.5852
675.283	71.1971
678.658	51.192
682.032	38.3578
685.407	3.18054
688.782	8.35022
692.157	11.1652
695.532	16.3474
698.906	20.7926
702.281	1.104
705.656	6.63171
709.031	10.6119
712.406	24.4967
715.78	48.8269
719.155	69.2922
722.53	93.8566
725.905	117.056
729.28	139.484
732.654	167.459
736.029	193.648
739.404	212.617
742.779	226.492
746.154	254.157
749.529	261.226
752.903	281.526
756.278	292.183
759.653	295.747
763.028	303.8
766.403	309.034
769.778	315.02
773.152	315.652
776.527	305.466
779.902	283.885
783.277	289.283
786.652	273.241
790.026	246.308
793.401	236.227
796.776	219.814
800.151	190.273
803.526	174.89
806.9	149.378
810.275	119.287
813.65	100.096
817.025	72.6725
820.4	58.9788
823.775	33.1221
827.149	33.8232
830.524	19.6655
833.899	16.342
837.274	14.7679
840.649	20.8437
844.024	11.5421
847.398	3.75275
850.773	10.2437
854.148	9.32709
857.523	3.88879
860.898	0.34436
864.272	4.71637
867.647	6.87103
871.022	8.9502
874.397	4.38135
877.772	1.20032
881.146	9.98456
884.521	9.45691
887.896	5.17566
891.271	9.16437
894.646	13.4606
898.021	12.3199
901.395	17.8635
904.77	28.5021
908.145	38.4556
911.52	33.7132
914.895	35.8546
918.269	32.2944
921.644	23.3436
925.019	17.5142
928.394	16.0981
931.769	27.7434
935.144	7.73785
938.518	16.7798
941.893	14.8112
945.268	19.1686
948.643	12.6336
952.018	20.1791
955.393	7.51764
958.767	7.05225
962.142	3.89301
965.517	1.6507
968.892	3.38556
972.266	6.46143
975.641	6.73498
979.016	6.3327
982.391	7.22931
985.766	6.23712
989.141	6.28918
992.515	2.76099
995.89	8.97266
999.265	9.69196
1002.64	11.884
1006.01	10.5667
1009.39	1.98486
1012.76	3.87909
1016.14	7.04218
1019.51	9.3233
1022.89	16.8341
1026.26	14.4659
1029.64	20.8569
1033.01	29.1978
1036.39	31.7943
1039.76	43.5061
1043.14	55.113
1046.51	64.9285
1049.89	77.1258
1053.26	102.196
1056.64	124.642
1060.01	151.471
1063.39	189.8
1066.76	227.18
1070.14	228.304
1073.51	245.246
1076.89	294.582
1080.26	339.037
1083.63	332.259
1087.01	321.373
1090.38	339.137
1093.76	352.416
1097.13	371.815
1100.51	375.611
1103.88	393.116
1107.26	397.08
1110.63	420.857
1114.01	455.59
1117.38	492.89
1120.76	537.863
1124.13	601.255
1127.51	660.728
1130.88	696.166
1134.26	697.779
1137.63	655.291
1141.01	602.277
1144.38	524.673
1147.76	480.789
1151.13	405.61
1154.51	343.38
1157.88	279.789
1161.26	229.766
1164.63	151.36
1168.01	75.2227
1171.38	9.8335
1174.76	31.1382
1178.13	95.8389
1181.51	135.426
1184.88	157.615
1188.26	124.746
1191.63	39.0825
1195.01	131.446
1198.38	346.365
1201.75	677.689
1205.13	1147.53
1208.5	1801.34
1211.88	2704.45
1215.25	3848.72
1218.63	5295.24
1222	7091.61
1225.38	9261.62
1228.75	11468.7
1232.13	13892
1235.5	16038
1238.88	17861.5
1242.25	19140.1
1245.63	19330.2
1249	18433.7
1252.38	16581
1255.75	14124.7
1259.13	11395.1
1262.5	8642.64
1265.88	6117.7
1269.25	3941.81
1272.62	2074.25
1276	730.598
1279.38	19.1836
