Measurement: Raman, 785 nm, unoriented, Raman Data Processed
Mineral: Tundrite-(Ce)
Rruff sample: R060837
Ideal chemistry: Na_2_Ce^3+^_2_Ti^4+^O_2_SiO_4_(CO_3_)_2_
Locality: Barkeviksjaer, Norway
Source: Michael Scott
Description: Brown elongated bladed crystals associated with white orthoclase and black amphibole
Measured chemistry: (Na_1.95_Ca_0.05_)_Σ=2_(Ce_1.15_La_0.60_Nd_0.25_)_Σ=2_(Ti_0.95_Nb_0.05_)_Σ=1_O_2_Si_1.00_O_4_(CO_3_)_2_; CO_2_ estimated by difference
Raman shift (cm-1)	intensity
125.867	0
128.759	121.386
131.652	204.393
134.545	69.9178
137.437	41.4759
140.33	37.8387
143.223	140.281
146.115	195.17
149.008	222.906
151.901	144.826
154.793	43.3499
157.686	8.99646
160.579	82.3102
163.472	161.38
166.364	237.939
169.257	283.919
172.15	321.986
175.042	384.053
177.935	421.87
180.828	476.799
183.72	567.076
186.613	590.986
189.506	713.967
192.399	658.565
195.291	765.763
198.184	929.086
201.077	1174.26
203.969	1324.03
206.862	1529.75
209.755	1712.5
212.648	1766.86
215.54	1837.32
218.433	1782.2
221.326	1761.63
224.218	1770.47
227.111	1761.54
230.004	1944.05
232.896	2084.19
235.789	2299.48
238.682	2413.32
241.575	2427.84
244.467	2326.9
247.36	2161.07
250.253	1896.84
253.145	1715.09
256.038	1442.25
258.931	1198.15
261.823	930.518
264.716	774.467
267.609	529.846
270.502	360.848
273.394	197.324
276.287	151.158
279.18	24.5132
282.072	5.54541
284.965	68.5254
287.858	122.414
290.75	38.1963
293.643	17.8506
296.536	84.3769
299.428	270.549
302.321	351.942
305.214	442.589
308.107	529.111
310.999	529.617
313.892	513.996
316.785	661.322
319.677	739.295
322.57	829.268
325.463	971.552
328.356	1058.38
331.248	1140.42
334.141	1198.05
337.034	1264.08
339.926	1391.36
342.819	1414.33
345.712	1461.2
348.604	1538.12
351.497	1591.54
354.39	1588.12
357.283	1548.96
360.175	1537.14
363.068	1396.68
365.961	1325.41
368.853	1260.6
371.746	1099.37
374.639	948.372
377.531	822.29
380.424	672.08
383.317	563.888
386.209	375.359
389.102	339.295
391.995	244.346
394.888	170.428
397.78	152.48
400.673	7.52344
403.566	57.1313
406.458	2.09424
409.351	12.5732
412.244	51.669
415.137	38.4106
418.029	13.0996
420.922	68.4575
423.815	121.83
426.707	144.168
429.6	166.434
432.493	210.2
435.385	251.273
438.278	263.51
441.171	310.727
444.063	314.343
446.956	360.418
449.849	397.873
452.742	389.214
455.634	421.763
458.527	459.281
461.42	529.767
464.312	502.067
467.205	532.826
470.098	494.586
472.99	472.022
475.883	415.83
478.776	465.964
481.669	401.513
484.561	366.889
487.454	390.62
490.347	373.496
493.239	328.348
496.132	251.624
499.025	221.485
501.918	155.008
504.81	134.017
507.703	71.5562
510.596	84.6995
513.488	71.8254
516.381	82.1103
519.274	74.676
522.166	33.4194
525.059	41.6926
527.952	61.8967
530.845	51.3682
533.737	37.282
536.63	40.7075
539.523	73.3464
542.415	104.617
545.308	35.2065
548.201	11.3706
551.093	75.5396
553.986	79.103
556.879	123.834
559.771	144.015
562.664	115.155
565.557	99.7556
568.45	48.272
571.342	122.16
574.235	93.4629
577.128	180.794
580.02	159.407
582.913	155.047
585.806	150.247
588.699	149.94
591.591	200.213
594.484	168.177
597.377	145.308
600.269	119.602
603.162	123.942
606.055	107.388
608.947	54.7051
611.84	2.60107
614.733	20.1519
617.626	81.812
620.518	15.3418
623.411	23.865
626.304	28.0252
629.196	10.5222
632.089	65.3757
634.982	37.3679
637.875	9.3103
640.767	57.9377
643.66	52.2918
646.553	55.1304
649.445	169.084
652.338	131.834
655.231	163.312
658.123	227.508
661.016	286.88
663.909	311.017
666.802	340.151
669.694	404.782
672.587	453.307
675.48	439.259
678.372	518.411
681.265	534.827
684.158	499.633
687.05	588.3
689.943	629.227
692.836	574.69
695.729	527.887
698.621	567.947
701.514	557.23
704.407	485.19
707.299	522.657
710.192	497.802
713.085	538.768
715.977	497.633
718.87	485.545
721.763	464.9
724.655	416.648
727.548	433.07
730.441	368.07
733.334	353.596
736.226	203.68
739.119	286.017
742.012	235.504
744.904	173.843
747.797	222.653
750.69	165.282
753.582	109.179
756.475	130.941
759.368	51.9091
762.261	78.6936
765.153	39.7361
768.046	0.773193
770.939	28.6071
773.831	23.9237
776.724	17.2136
779.617	30.5754
782.51	21.2978
785.402	3.3587
788.295	46.9323
791.188	20.8533
794.08	51.3942
796.973	8.92505
799.866	5.86426
802.758	8.6933
805.651	34.5843
808.544	47.7505
811.437	60.0894
814.329	59.1358
817.222	54.5922
820.115	30.6221
823.007	42.1146
825.9	63.2554
828.793	70.6976
831.685	94.4935
834.578	70.5862
837.471	88.6963
840.364	98.3601
843.256	98.195
846.149	75.4908
849.042	85.7889
851.934	63.9298
854.827	67.2648
857.72	55.0501
860.612	16.3994
863.505	25.359
866.398	25.3463
869.29	42.005
872.183	15.5847
875.076	40.7029
877.969	30.7215
880.861	13.4914
883.754	10.3762
886.647	28.5994
889.539	8.55408
892.432	34.2386
895.325	25.4998
898.217	30.2271
901.11	6.46643
904.003	26.8676
906.896	2.54321
909.788	21.03
912.681	21.255
915.574	32.9479
918.466	23.9525
921.359	12.4718
924.252	0.603394
927.145	14.5525
930.037	0.834106
932.93	36.9386
935.823	15.6794
938.715	55.0883
941.608	67.6063
944.501	60.85
947.394	86.2369
950.286	93.0393
953.179	80.8831
956.072	108.512
958.964	94.1908
961.857	104.724
964.75	90.549
967.642	128.634
970.535	140.415
973.428	178.723
976.321	133.622
979.213	190.589
982.106	185.809
984.999	245.832
987.891	192.862
990.784	224.024
993.677	209.339
996.569	340.559
999.462	318.638
1002.36	383.721
1005.25	393.742
1008.14	386.843
1011.03	340.729
1013.93	387.255
1016.82	429.33
1019.71	425.779
1022.6	411.199
1025.5	338.767
1028.39	444.12
1031.28	534.641
1034.17	554.47
1037.07	645.925
1039.96	646.517
1042.85	644.537
1045.74	654.248
1048.64	632.495
1051.53	668.161
1054.42	594.684
1057.32	542.379
1060.21	485.701
1063.1	428.625
1065.99	419.104
1068.89	331.78
1071.78	280.388
1074.67	231.952
1077.57	210.79
1080.46	98.9189
1083.35	18.8579
1086.24	27.21
1089.14	53.897
1092.03	123.251
1094.92	92.9233
1097.81	77.6631
1100.71	135.638
1103.6	85.8174
1106.49	88.7139
1109.38	89.3408
1112.28	319.816
1115.17	472.737
1118.06	799.833
1120.96	1182.82
1123.85	1562.33
1126.74	2310.22
1129.63	2963.29
1132.53	4011.17
1135.42	5133.66
1138.31	6683.91
1141.2	8433.74
1144.1	10537.9
1146.99	13012.4
1149.88	15776.1
1152.78	18908.5
1155.67	21957.4
1158.56	25340.9
1161.45	28249.6
1164.35	30565.7
1167.24	31821.9
1170.13	32409
1173.02	31601.2
1175.92	29946.3
1178.81	27310.6
1181.7	24131.5
1184.6	20792.1
1187.49	17538.6
1190.38	14329.9
1193.27	11509.9
1196.17	8965.38
1199.06	6632.44
1201.95	4672.73
1204.84	3183.98
1207.74	1675.02
1210.63	765.041
1213.52	152.346
1216.41	53.0586
1219.31	114.158
