Measurement: Raman, 780 nm, unoriented, Raman Data Processed
Mineral: Tundrite-(Ce)
Rruff sample: R130564
Ideal chemistry: Na_2_Ce^3+^_2_Ti^4+^O_2_SiO_4_(CO_3_)_2_
Locality: Ilimaussaq complex, Narsaq, Kitaa, Greenland
Source: Rock Currier
Description: Aggregates of acicular or bladed yellow crystals associated with albite and aegirine
Raman shift (cm-1)	intensity
88.0644	0
91.4393	110.714
94.8141	158.433
98.1889	71.866
101.564	62.7921
104.939	125.187
108.313	146.249
111.688	139.75
115.063	115.431
118.438	77.1522
121.813	95.4875
125.187	99.1785
128.562	110.844
131.937	92.7192
135.312	73.6238
138.687	50.9476
142.061	26.0265
145.436	3.14502
148.811	5.5708
152.186	5.66272
155.561	10.9342
158.936	14.4364
162.31	12.9601
165.685	38.5999
169.06	75.9933
172.435	86.9652
175.81	116.312
179.185	146.585
182.559	158.566
185.934	186.34
189.309	196.308
192.684	192.485
196.059	180.862
199.433	165.531
202.808	124.129
206.183	87.5524
209.558	47.1857
212.933	7.8103
216.308	3.854
219.682	33.9263
223.057	43.6367
226.432	21.6011
229.807	20.252
233.182	73.8757
236.556	169.213
239.931	299.882
243.306	403.892
246.681	526.631
250.056	667.065
253.43	801.056
256.805	928.496
260.18	1047.89
263.555	1204.17
266.93	1365.18
270.305	1547.77
273.679	1746.86
277.054	1992.42
280.429	2241.59
283.804	2421.52
287.179	2546.49
290.553	2605.37
293.928	2580.66
297.303	2529.2
300.678	2501.5
304.053	2428.81
307.428	2385.02
310.802	2312.37
314.177	2212.36
317.552	2068.11
320.927	1886.82
324.302	1643.26
327.676	1416.03
331.051	1196.06
334.426	956.122
337.801	766.254
341.176	561.313
344.551	373.493
347.925	226.51
351.3	122.613
354.675	42.3389
358.05	10.6318
361.425	44.7788
364.8	32.2822
368.174	21.0342
371.549	9.67432
374.924	60.3618
378.299	132.56
381.674	205.792
385.048	310.062
388.423	358.817
391.798	444.972
395.173	481.725
398.548	544.124
401.923	604.807
405.297	670.137
408.672	704.444
412.047	776.073
415.422	804.431
418.796	878.812
422.171	920.301
425.546	954.835
428.921	951.928
432.296	925.659
435.671	879.342
439.045	816.04
442.42	689.583
445.795	573.295
449.17	469.712
452.545	367.071
455.92	302.85
459.294	186.921
462.669	119.886
466.044	67.3394
469.419	42.665
472.794	13.6172
476.168	25.2354
479.543	15.2212
482.918	34.1543
486.293	0.547363
489.668	24.251
493.043	63.6938
496.417	84.2827
499.792	123.624
503.167	179.775
506.542	248.724
509.917	319.334
513.291	372.64
516.666	422.038
520.041	487.157
523.416	525.811
526.791	594.087
530.165	643.399
533.54	673.402
536.915	701.006
540.29	715.439
543.665	711.171
547.04	696.978
550.414	706.883
553.789	675.412
557.164	675.879
560.539	611.382
563.914	581.961
567.288	496.922
570.663	439.953
574.038	374.318
577.413	308.743
580.788	292.72
584.163	228.632
587.537	222.57
590.912	188.976
594.287	155.692
597.662	153.229
601.037	140.192
604.412	130.126
607.786	95.3716
611.161	91.8457
614.536	63.7378
617.911	57.4534
621.286	23.4194
624.66	3.95581
628.035	1.80493
631.41	2.24853
634.785	6.23096
638.16	2.12109
641.534	6.54688
644.909	13.3455
648.284	21.9094
651.659	19.8755
655.034	53.9253
658.409	66.0518
661.783	65.4177
665.158	77.7978
668.533	93.999
671.908	76.4802
675.283	71.1719
678.658	70.9268
682.032	49.3142
685.407	50.9978
688.782	38.2703
692.157	37.2563
695.532	32.8821
698.906	0.081299
702.281	8.85962
705.656	17.5083
709.031	8.19507
712.406	24.6716
715.78	46.9954
719.155	57.4797
722.53	53.6855
725.905	72.1309
729.28	106.774
732.654	106.122
736.029	130.649
739.404	152.687
742.779	174.681
746.154	216.949
749.529	233.748
752.903	257.189
756.278	282.958
759.653	314.352
763.028	307.405
766.403	303.966
769.778	336.577
773.152	333.722
776.527	349.394
779.902	350.484
783.277	339.851
786.652	318.997
790.026	315.865
793.401	306.683
796.776	290.783
800.151	268.916
803.526	243.702
806.9	225.446
810.275	197.853
813.65	182.974
817.025	158.449
820.4	132.418
823.775	101.987
827.149	100.642
830.524	72.6112
833.899	71.1988
837.274	58.2927
840.649	41.6909
844.024	34.4374
847.398	28.7039
850.773	21.3472
854.148	20.5211
857.523	9.88525
860.898	4.8529
864.272	2.47583
867.647	5.70349
871.022	0.188721
874.397	0.277649
877.772	3.16626
881.146	4.41064
884.521	3.78333
887.896	2.38806
891.271	1.71167
894.646	18.2462
898.021	20.3876
901.395	26.5605
904.77	41.4666
908.145	50.6902
911.52	52.8715
914.895	48.5648
918.269	42.1292
921.644	22.1699
925.019	25.8198
928.394	25.0207
931.769	19.1378
935.144	7.74866
938.518	16.781
941.893	24.4976
945.268	28.9684
948.643	20.8664
952.018	27.0754
955.393	16.0572
958.767	11.0071
962.142	1.74445
965.517	1.46008
968.892	3.05786
972.266	5.62897
975.641	1.41742
979.016	6.9978
982.391	3.43103
985.766	11.0337
989.141	5.83154
992.515	5.88471
995.89	7.91211
999.265	5.33307
1002.64	1.49054
1006.01	3.60809
1009.39	0.238892
1012.76	7.95697
1016.14	7.93439
1019.51	8.52393
1022.89	9.58746
1026.26	24.9777
1029.64	30.309
1033.01	43.045
1036.39	53.3408
1039.76	55.8357
1043.14	69.4187
1046.51	98.953
1049.89	114.358
1053.26	144.7
1056.64	180.09
1060.01	207.397
1063.39	259.202
1066.76	287.524
1070.14	307.237
1073.51	309.325
1076.89	362.854
1080.26	364.37
1083.63	339.403
1087.01	337.792
1090.38	344.732
1093.76	362.382
1097.13	378.592
1100.51	398.065
1103.88	397.605
1107.26	422.901
1110.63	434.868
1114.01	469.409
1117.38	528.802
1120.76	581.668
1124.13	628.625
1127.51	657.013
1130.88	671.904
1134.26	630.505
1137.63	581.584
1141.01	524.264
1144.38	468.433
1147.76	397.71
1151.13	320.32
1154.51	274.129
1157.88	179.042
1161.26	117.649
1164.63	67.1509
1168.01	24.4531
1171.38	40.0508
1174.76	93.8364
1178.13	108.368
1181.51	138.058
1184.88	104.307
1188.26	31.519
1191.63	54.8076
1195.01	222.849
1198.38	481.909
1201.75	821.844
1205.13	1302.58
1208.5	1936.42
1211.88	2681.44
1215.25	3663.4
1218.63	4822.93
1222	6218.38
1225.38	7780.1
1228.75	9344.14
1232.13	10843.7
1235.5	12157
1238.88	13285.5
1242.25	13942.2
1245.63	14064.4
1249	13456.6
1252.38	12251.2
1255.75	10624.7
1259.13	8821.9
1262.5	6910.06
1265.88	5017.25
1269.25	3278.83
1272.62	1793.87
1276	648.627
1279.38	25.4531
