Measurement: Raman, 780 nm, unoriented, Raman Data RAW
Mineral: Turkestanite
Rruff sample: R060525
Ideal chemistry: (K,[box])(Ca,Na)_2_ThSi_8_O_20_nH_2_O
Locality: DeMix Quarry, Mont St. Hilaire, Rouville County, Quebec, Canada
Source: Michael Scott
Description: Divergent group of brown rectangular prisms
Measured chemistry: K_0.50_(Ca_0.78_Na_0.77_K_0.12_Mn_0.14_Al_0.07_Fe_0.05_U_0.02_Pb_0.02_Ce_0.02_Nd_0.01_)_Î£=2.00_Th_1.04_Si_8_O_20_
Raman shift (cm-1)	intensity
99.7995	429.423
103.174	425.913
106.549	431.414
109.924	432.058
113.299	436.71
116.674	446.59
120.048	454.601
123.423	463.686
126.798	467.926
130.173	478.771
133.548	484.441
136.923	496.184
140.297	511.951
143.672	528.573
147.047	538.596
150.422	558.125
153.797	577.725
157.171	607.197
160.546	633.158
163.921	664.142
167.296	696.751
170.671	735.377
174.046	774.18
177.42	815.104
180.795	858.328
184.17	900.489
187.545	937.806
190.92	972.436
194.294	1007.97
197.669	1046.38
201.044	1082.26
204.419	1128.17
207.794	1169.25
211.168	1205.84
214.543	1219.03
217.918	1213.38
221.293	1186.4
224.668	1153.87
228.042	1126.66
231.417	1107.79
234.792	1100.36
238.167	1106.81
241.542	1117.36
244.917	1146.12
248.291	1181.89
251.666	1213.22
255.041	1246.1
258.416	1284.91
261.791	1324.66
265.166	1358.3
268.54	1379.43
271.915	1384.52
275.29	1380.11
278.665	1354.18
282.04	1330.68
285.414	1293.18
288.789	1270.7
292.164	1246.68
295.539	1223.44
298.914	1208.24
302.288	1192.6
305.663	1194.17
309.038	1189.48
312.413	1190.86
315.788	1196.32
319.163	1191.9
322.537	1197.07
325.912	1195.94
329.287	1197.63
332.662	1193.43
336.037	1201.86
339.411	1209.42
342.786	1223.18
346.161	1239.9
349.536	1264.38
352.911	1297.65
356.286	1329.49
359.66	1372.73
363.035	1434.28
366.41	1491.82
369.785	1575.58
373.16	1654.95
376.534	1752.2
379.909	1861.57
383.284	1979.9
386.659	2102.2
390.034	2226.11
393.409	2325.71
396.783	2428.84
400.158	2482.14
403.533	2519.31
406.908	2535.78
410.283	2490.48
413.658	2435.24
417.032	2360.09
420.407	2261.48
423.782	2159.35
427.157	2061.07
430.532	1980.74
433.906	1899.28
437.281	1849
440.656	1794.2
444.031	1763.51
447.406	1742.74
450.781	1733.3
454.155	1722.96
457.53	1716.14
460.905	1725.39
464.28	1730.56
467.654	1727.57
471.029	1724.98
474.404	1738.77
477.779	1727.98
481.154	1712.32
484.529	1700.41
487.903	1674.08
491.278	1647.35
494.653	1623.38
498.028	1598.19
501.403	1563.34
504.777	1553.07
508.152	1531.42
511.527	1526.89
514.902	1512.87
518.277	1515.12
521.652	1520.48
525.026	1525.27
528.401	1546.53
531.776	1563.65
535.151	1584.87
538.526	1617.82
541.9	1632.18
545.275	1657.78
548.65	1679.52
552.025	1701.11
555.4	1726.94
558.775	1743.53
562.149	1757.72
565.524	1778.25
568.899	1790.25
572.274	1793.77
575.649	1807.81
579.024	1801.28
582.398	1801.6
585.773	1780.5
589.148	1758.55
592.523	1728.8
595.898	1695.8
599.272	1647.61
602.647	1603.39
606.022	1556.42
609.397	1512.8
612.772	1482.55
616.146	1448.28
619.521	1417.71
622.896	1397.46
626.271	1369.23
629.646	1344.8
633.021	1320.2
636.395	1292.46
639.77	1259.03
643.145	1226.52
646.52	1196.8
649.895	1169.82
653.269	1136.19
656.644	1108.67
660.019	1083.63
663.394	1057.26
666.769	1031.63
670.144	1009.24
673.518	985.545
676.893	971.064
680.268	956.797
683.643	947.709
687.018	937.393
690.393	922.931
693.767	916.817
697.142	910.007
700.517	910.477
703.892	897.625
707.266	899.126
710.641	891.015
714.016	881.665
717.391	880.711
720.766	876.856
724.141	871.523
727.515	866.035
730.89	862.617
734.265	855.222
737.64	849.937
741.015	844.964
744.389	834.655
747.764	827.459
751.139	817.94
754.514	801.002
757.889	792.739
761.264	778.068
764.638	766.688
768.013	760.511
771.388	747.392
774.763	733.692
778.138	721.086
781.513	708.588
784.887	694.52
788.262	685.597
791.637	681.295
795.012	669.993
798.387	650.571
801.761	639.966
805.136	630.815
808.511	624.341
811.886	610.508
815.261	595.927
818.635	592.665
822.01	584.484
825.385	569.598
828.76	565.527
832.135	557.794
835.51	551.574
838.884	547.253
842.259	542.761
845.634	538.023
849.009	535.574
852.384	534.331
855.759	531.086
859.133	527.805
862.508	528.479
865.883	526.744
869.258	524.325
872.633	526.622
876.007	527.67
879.382	525.656
882.757	529.171
886.132	536.167
889.507	539.086
892.881	547.112
896.256	552.649
899.631	563.015
903.006	574.119
906.381	590.589
909.756	602.608
913.13	617.937
916.505	637.634
919.88	651.928
923.255	667.243
926.63	683.523
930.005	695.43
933.379	710.6
936.754	713.67
940.129	711.795
943.504	701.84
946.879	691.631
950.253	678.909
953.628	660.99
957.003	638.757
960.378	615.429
963.753	590.919
967.127	567.158
970.502	543.792
973.877	526.761
977.252	503.858
980.627	488.272
984.001	472.883
987.376	459.451
990.751	450.538
994.126	438.123
997.501	427.702
1000.88	422.344
1004.25	415.006
1007.62	408.514
1011	404.193
1014.38	400.215
1017.75	397.386
1021.12	392.012
1024.5	386.054
1027.87	388.011
1031.25	386.259
1034.62	385.275
1038	387.747
1041.37	383.941
1044.75	386.846
1048.12	386.595
1051.5	386.165
1054.87	388.204
1058.25	391.45
1061.62	392.634
1065	398.141
1068.37	399.522
1071.75	403.495
1075.12	405.912
1078.5	409.286
1081.87	413.619
1085.25	420.38
1088.62	427.459
1092	428.748
1095.37	437.41
1098.74	442.47
1102.12	448.581
1105.49	455.736
1108.87	471.725
1112.24	475.693
1115.62	483.837
1118.99	495.564
1122.37	506.079
1125.74	521.121
1129.12	537.244
1132.49	550.234
1135.87	563.893
1139.24	586.512
1142.62	600.642
1145.99	625.851
1149.37	644.802
1152.74	670.462
1156.12	698.13
1159.49	727.669
1162.87	763.475
1166.24	798.531
1169.62	845.267
1172.99	885.489
1176.37	944.102
1179.74	1007.77
1183.12	1070.05
1186.49	1153.97
1189.87	1252.47
1193.24	1367.23
1196.62	1499.73
1199.99	1649.54
1203.37	1820.15
1206.74	2016.58
1210.11	2221.98
1213.49	2405.12
1216.86	2571.41
1220.24	2695.11
1223.61	2780.87
1226.99	2813.49
1230.36	2780.03
1233.74	2782
1237.11	2793.29
1240.49	2815.2
1243.86	2885.93
1247.24	2992.56
1250.61	3090.85
1253.99	3210.58
1257.36	3339.81
1260.74	3477.81
1264.11	3532.68
1267.49	3538.76
1270.86	3502.34
1274.24	3435.4
1277.61	3336.72
1280.98	3210.38
1284.36	3094.74
