Measurement: Raman, 532 nm, unoriented, Raman Data Processed
Mineral: Turneaureite
Rruff sample: R070758
Ideal chemistry: Ca_5_(As^5+^O_4_)_3_Cl
Locality: ZCA mine No. 4 (St Joe mine), Balmat, Balmat-Edwards Zinc District, St Lawrence County, New York, USA
Source: Michael Scott
Description: Colorless to grayish white massive that fluoresces bright orange under SW UV.
Raman shift (cm-1)	intensity
154.871	0
157.763	39.8643
160.656	12.9849
163.549	72.3603
166.441	21.4023
169.334	63.3877
172.227	49.8999
175.119	80.6045
178.012	67.2705
180.905	73.4268
183.798	81.7822
186.69	89.0356
189.583	88.1846
192.476	103.658
195.368	133.596
198.261	77.8311
201.154	53.9453
204.047	70.7163
206.939	101.874
209.832	138.542
212.725	97.605
215.617	50.5635
218.51	62.3887
221.403	90.2144
224.295	73.6553
227.188	59.4736
230.081	10.4639
232.974	66.314
235.866	128.112
238.759	123.262
241.652	8.10449
244.544	79.4028
247.437	85.9268
250.33	98.9356
253.222	100.438
256.115	90.2637
259.008	111.929
261.901	68.3315
264.793	161.659
267.686	150.918
270.579	128.275
273.471	92.6094
276.364	58.5557
279.257	36.7749
282.149	24.0171
285.042	47.9438
287.935	108.159
290.827	49.5259
293.72	14.1636
296.613	69.3506
299.506	2.79492
302.398	29.6289
305.291	48.8603
308.184	51.7769
311.076	26.4043
313.969	18.4873
316.862	51.9062
319.755	27.9775
322.647	3.75
325.54	16.1475
328.433	80.2378
331.325	113.765
334.218	75.2437
337.111	87.1812
340.003	153.002
342.896	90.187
345.789	206.316
348.682	162.686
351.574	113.564
354.467	90.5498
357.36	70.4868
360.252	19.7783
363.145	79.7793
366.038	99.4893
368.93	43.7715
371.823	179.815
374.716	49.0591
377.608	106.965
380.501	72.3232
383.394	104.231
386.287	119.025
389.179	24.1494
392.072	91.5986
394.965	5.79297
397.857	48.3379
400.75	19.0781
403.643	63.001
406.536	110.231
409.428	54.1406
412.321	32.6152
415.214	59.9893
418.106	106.873
420.999	75.165
423.892	45.5684
426.784	35.543
429.677	47.5684
432.57	138.473
435.462	193.477
438.355	99.0537
441.248	91.9277
444.141	147.983
447.033	78.4482
449.926	77.085
452.819	87.7568
455.711	115.287
458.604	76.7793
461.497	81.8047
464.389	6.86719
467.282	37.3613
470.175	113.905
473.067	60.1367
475.96	15.8105
478.853	25.0273
481.746	116.024
484.638	101.258
487.531	74.4131
490.424	136.986
493.316	71.5596
496.209	50.9414
499.102	70.0898
501.995	68.4199
504.887	67.2803
507.78	32.3008
510.673	16.748
513.565	114.526
516.458	114.838
519.351	10.252
522.243	10.0303
525.136	20.5762
528.029	51.4795
530.922	54.7871
533.814	115.057
536.707	154.347
539.6	12.6113
542.492	104.062
545.385	89.9062
548.278	17.9717
551.17	7.46094
554.063	20.6045
556.956	75.7598
559.848	68.3457
562.741	134.373
565.634	172.669
568.527	49.7861
571.419	55.293
574.312	118.653
577.205	141.453
580.097	50.123
582.99	49.5586
585.883	78.9365
588.775	74.9883
591.668	10.206
594.561	100.153
597.454	148.245
600.346	45.9199
603.239	57.1445
606.132	38.2725
609.024	3.83203
611.917	92.2324
614.81	141.573
617.702	174.391
620.595	88.9199
623.488	32.5654
626.381	119.167
629.273	74.5566
632.166	156.503
635.059	57.956
637.951	97.0293
640.844	74.7607
643.737	82.9434
646.63	39.8721
649.522	99.5195
652.415	26.7539
655.308	96.8643
658.2	86.957
661.093	168.096
663.986	155.449
666.878	44.5283
669.771	83.5264
672.664	106.816
675.557	79.0019
678.449	92.9746
681.342	150.851
684.235	155.256
687.127	170.192
690.02	186.76
692.913	164.439
695.805	119.043
698.698	121.867
701.591	90.7305
704.484	112.057
707.376	138.43
710.269	82.7402
713.162	190.277
716.054	150.428
718.947	163.768
721.84	191.637
724.732	185.885
727.625	114.598
730.518	138.719
733.41	53.2207
736.303	58.9688
739.196	23.2422
742.089	149.369
744.981	64.5644
747.874	118.736
750.767	135.842
753.659	65.207
756.552	180.693
759.445	25.5664
762.337	88.9648
765.23	201.127
768.123	159.701
771.016	125.594
773.908	188.775
776.801	169.15
779.694	66.0938
782.586	75.3477
785.479	78.5859
788.372	117.879
791.264	115.273
794.157	86.9727
797.05	130.69
799.943	261.086
802.835	274.383
805.728	262.994
808.621	319.051
811.513	217.506
814.406	291.012
817.299	257
820.192	223.59
823.084	118.451
825.977	255.834
828.87	230.705
831.762	301.129
834.655	297.904
837.548	236.559
840.44	308.053
843.333	422.533
846.226	586.988
849.118	476.615
852.011	504.418
854.904	473.502
857.797	347.711
860.689	376.445
863.582	148.871
866.475	112.17
869.367	54.6016
872.26	34.457
875.153	38.9395
878.045	125.189
880.938	132.688
883.831	124.045
886.723	124.648
889.616	116.768
892.509	32.7969
895.402	7.87695
898.294	82.4102
901.187	46.2988
904.08	95.332
906.972	2.50586
909.865	22.875
912.758	48.8691
915.65	88.8555
918.543	112.231
921.436	10.4082
924.329	57.8379
927.221	137.144
930.114	53.0879
933.007	95.4238
935.899	41.9531
938.792	166.486
941.685	137.053
944.577	78.6328
947.47	160.928
950.363	131.412
953.256	132.414
956.148	116.654
959.041	37.9609
961.934	41.2324
964.826	246.648
967.719	186.691
970.612	214.783
973.505	103.422
976.397	97.3711
979.29	70.543
982.183	154.533
985.075	108.828
987.968	92.9844
990.861	38.2891
993.753	6.52539
996.646	109.562
999.539	246.703
1002.43	263.992
1005.32	197.125
1008.22	245.883
1011.11	107.766
1014	188.475
1016.89	213.67
1019.79	161.141
1022.68	34.5645
1025.57	79.3184
1028.47	147.26
1031.36	189.373
1034.25	190.219
1037.14	182.463
1040.04	58.1035
1042.93	198.309
1045.82	14.7676
1048.71	27.0352
1051.61	51.2266
1054.5	15.5254
1057.39	61.3438
1060.29	134.666
1063.18	68.1875
1066.07	79.7617
1068.96	130.572
1071.86	31.8398
1074.75	103.107
1077.64	187.379
1080.53	271.461
1083.43	105.91
1086.32	89.7227
1089.21	87.8438
1092.11	66.2891
1095	78.6094
1097.89	195.981
1100.78	63.6875
1103.68	84.3516
1106.57	117.762
1109.46	168.578
1112.35	231.613
1115.25	321.805
1118.14	145.781
1121.03	121.297
1123.92	260.367
1126.82	268.207
1129.71	249.144
1132.6	305.133
1135.5	320.066
1138.39	214.508
1141.28	102.121
1144.17	106.863
1147.07	177.977
1149.96	274.894
1152.85	228.133
1155.74	3.37891
1158.64	55.9609
1161.53	104.031
1164.42	22.6172
1167.32	54.6055
1170.21	74.6484
1173.1	167.129
1175.99	111.551
1178.89	66.0469
1181.78	198.445
1184.67	115.148
1187.56	307.566
1190.46	402.055
1193.35	251.203
1196.24	262.918
1199.13	77.4531
1202.03	138.414
1204.92	262.504
1207.81	215.406
1210.71	231.215
1213.6	220.695
1216.49	159.887
1219.38	90.0195
1222.28	138.902
1225.17	79.8477
1228.06	48.3203
1230.95	57.9414
1233.85	132.492
1236.74	3.44141
1239.63	208.965
1242.53	183.473
1245.42	192.527
1248.31	201.934
1251.2	282.098
1254.1	299.043
1256.99	130.523
1259.88	203.32
1262.77	185.82
1265.67	140.238
1268.56	119.699
1271.45	163.856
1274.35	229.746
1277.24	274.543
1280.13	49.8125
1283.02	30.3086
1285.92	130.289
1288.81	58
1291.7	85.3672
1294.59	167.406
1297.49	113.266
1300.38	86.4688
