Measurement: Raman, 532 nm, unoriented, Raman Data Processed
Mineral: Tveitite-(Y)
Rruff sample: R060895
Ideal chemistry: (Y,Na)_6_(Ca,Na,Y)_12_(Ca,Na)F_42_
Locality: Rov-Gora, West Keivy, Kola Peninsula, Russia
Source: Michael Scott
Description: Pink massive
Raman shift (cm-1)	intensity
83.918	630.904
87.2928	642.291
90.6676	680.205
94.0424	743.093
97.4172	776.153
100.792	1016.35
104.167	1947.4
107.542	4227.56
110.916	10143.5
114.291	19158.7
117.666	29206.3
121.041	41827.1
124.416	51087.4
127.79	55445.5
131.165	58515.9
134.54	62590.7
137.915	67916.7
141.29	71732.5
144.665	73718.7
148.039	74454.1
151.414	74624.7
154.789	74600.2
158.164	75628.2
161.539	77237.2
164.913	78118.3
168.288	78140
171.663	78231.7
175.038	79373.4
178.413	79958.6
181.788	81195.2
185.162	82302.2
188.537	83253.8
191.912	83668.3
195.287	83970.6
198.662	84528.8
202.036	85456.7
205.411	87215.6
208.786	89114.2
212.161	91175.2
215.536	94884.7
218.911	100062
222.285	106250
225.66	114040
229.035	123084
232.41	133482
235.785	143818
239.159	153722
242.534	162277
245.909	169140
249.284	172466
252.659	172282
256.033	168935
259.408	164970
262.783	159738
266.158	152470
269.533	144011
272.908	135446
276.282	128659
279.657	122307
283.032	117445
286.407	113204
289.782	109945
293.156	107527
296.531	105792
299.906	104979
303.281	104748
306.656	104600
310.031	103685
313.405	102548
316.78	101762
320.155	100826
323.53	100982
326.904	101060
330.279	100615
333.654	100026
337.029	99308.5
340.404	98966.8
343.779	97598.2
347.153	96838.2
350.528	96659.6
353.903	96955
357.278	96739.9
360.653	96919.1
364.027	97532.9
367.402	98068.7
370.777	98800.7
374.152	99734.2
377.527	100478
380.902	100895
384.276	101753
387.651	103161
391.026	104454
394.401	105658
397.776	107287
401.151	109516
404.525	111439
407.9	113108
411.275	115268
414.65	117271
418.024	119886
421.399	122607
424.774	125895
428.149	129578
431.524	133755
434.899	137188
438.273	140546
441.648	142953
445.023	144333
448.398	143888
451.773	142400
455.147	140488
458.522	137756
461.897	134865
465.272	132265
468.647	130033
472.022	127633
475.396	125649
478.771	123412
482.146	122078
485.521	120745
488.896	119391
492.27	117055
495.645	115745
499.02	114474
502.395	113244
505.77	112298
509.144	111219
512.519	110048
515.894	109490
519.269	108584
522.644	108024
526.019	106844
529.393	106308
532.768	105289
536.143	104379
539.518	103951
542.893	104264
546.268	104592
549.642	105187
553.017	105324
556.392	106093
559.767	106979
563.141	107731
566.516	109040
569.891	109929
573.266	110267
576.641	110587
580.016	110519
583.39	111094
586.765	111017
590.14	110954
593.515	110591
596.89	110324
600.264	109782
603.639	109189
607.014	108691
610.389	107711
613.764	106716
617.139	105546
620.513	104912
623.888	104280
627.263	103508
630.638	103178
634.013	102838
637.387	103427
640.762	103689
644.137	104463
647.512	105544
650.887	107094
654.261	107958
657.636	109085
661.011	109742
664.386	110266
667.761	111195
671.135	111973
674.51	111192
677.885	110428
681.26	108610
684.635	106607
688.01	103244
691.384	99081.1
694.759	94852.2
698.134	90241.4
701.509	85650.9
704.884	81050
708.259	77067
711.633	73529.9
715.008	70378.9
718.383	68017.9
721.758	65464.9
725.133	63368.4
728.507	61494.5
731.882	59816.9
735.257	58264.3
738.632	56657.1
742.007	55133.4
745.381	53640.7
748.756	52388.9
752.131	50231.7
755.506	48583.1
758.881	46790.7
762.255	44799.5
765.63	42740.8
769.005	40812
772.38	38790.5
775.755	36538.6
779.13	34541.8
782.504	32469.2
785.879	30575.5
789.254	28823.3
792.629	27144.3
796.004	25501.1
799.378	23981.1
802.753	22525.7
806.128	21235.5
809.503	20097.6
812.878	18991.6
816.253	18043.4
819.627	17055.9
823.002	16167.6
826.377	15477
829.752	14737.7
833.127	14007.9
836.501	13392.9
839.876	12925.4
843.251	12334.2
846.626	11877.4
850.001	11436.5
853.375	10918.6
856.75	10535.4
860.125	10254.6
863.5	9897.85
866.875	9546.02
870.25	9249.58
873.624	9033.5
876.999	8743.81
880.374	8553.32
883.749	8274
887.124	8091.04
890.498	7864.64
893.873	7736.67
897.248	7528.34
900.623	7315.05
903.998	7115.95
907.372	6933.97
910.747	6839.02
914.122	6656.77
917.497	6519.72
920.872	6405.14
924.246	6280.61
927.621	6245.99
930.996	6068.93
934.371	5938.85
937.746	5864.22
941.121	5694.37
944.495	5591.75
947.87	5482.65
951.245	5386.85
954.62	5247.9
957.995	5142.54
961.37	5016.55
964.744	4943.65
968.119	4776.06
971.494	4641.28
974.869	4587.93
978.244	4483.47
981.618	4369.3
984.993	4244.45
988.368	4111.86
991.743	4012.15
995.118	3924.06
998.492	3830.85
1001.87	3783.92
1005.24	3633.05
1008.62	3559.77
1011.99	3463.45
1015.37	3391.69
1018.74	3319.36
1022.12	3239.71
1025.49	3212.33
1028.87	3141.04
1032.24	3065.42
1035.62	2941.01
1038.99	2948.05
1042.37	2870.63
1045.74	2773.25
1049.12	2782.61
1052.49	2717.36
1055.86	2683.77
1059.24	2629.9
1062.61	2622.87
1065.99	2504.33
1069.36	2504.86
1072.74	2480.81
1076.11	2419.33
1079.49	2394.26
1082.86	2394.21
1086.24	2348.87
1089.61	2322.26
1092.99	2248.01
1096.36	2199.76
1099.74	2214.26
1103.11	2157.4
1106.49	2152.29
1109.86	2088.18
1113.24	2085.91
1116.61	2035.62
1119.99	2030.92
1123.36	2020.22
1126.73	1972.26
1130.11	1961.51
1133.48	1941.94
1136.86	1932.33
1140.23	1908.96
1143.61	1885.49
1146.98	1800.43
1150.36	1821.54
1153.73	1788.66
1157.11	1756.83
1160.48	1716.03
1163.86	1704.74
1167.23	1679.23
1170.61	1665.7
1173.98	1638.84
1177.36	1634.36
1180.73	1606.05
1184.11	1594.95
1187.48	1541.67
1190.86	1546.73
1194.23	1528.32
1197.61	1469.55
1200.98	1480.15
1204.36	1496.84
1207.73	1440.61
1211.11	1450.78
1214.48	1425.27
1217.86	1417.52
1221.23	1349.8
1224.61	1356.61
1227.98	1341.04
1231.36	1302.05
1234.73	1295.43
1238.1	1271.04
1241.48	1295.84
1244.85	1233.47
1248.23	1226.86
1251.6	1210.28
1254.98	1181.86
1258.35	1177.09
1261.73	1157.16
1265.1	1120.91
1268.48	1142.91
1271.85	1135.99
1275.23	1110.08
1278.6	1145.48
1281.98	1068.69
1285.35	1072.92
1288.73	1063.09
1292.1	1023.81
1295.48	1058.62
1298.85	1009.84
