Measurement: Raman, 785 nm, unoriented, Raman Data RAW
Mineral: Tveitite-(Y)
Rruff sample: R060895
Ideal chemistry: (Y,Na)_6_(Ca,Na,Y)_12_(Ca,Na)F_42_
Locality: Rov-Gora, West Keivy, Kola Peninsula, Russia
Source: Michael Scott
Description: Pink massive
Raman shift (cm-1)	intensity
83.4402	0
86.815	0
90.1898	39.8305
93.5646	36.5689
96.9394	43.4731
100.314	42.6561
103.689	47.7321
107.064	72.7277
110.439	87.362
113.814	123.716
117.188	117.809
120.563	236.548
123.938	515.071
127.313	850.107
130.688	1068.54
134.062	1046.8
137.437	1265.5
140.812	1852.24
144.187	2599.57
147.562	3160.39
150.936	3323
154.311	3402.96
157.686	3558.99
161.061	3881.97
164.436	4216.33
167.811	4412.65
171.185	4338.76
174.56	4265.34
177.935	4199.82
181.31	4149.44
184.685	4060.31
188.06	4021
191.434	3889.58
194.809	3846.59
198.184	3779.11
201.559	3672.63
204.934	3591.89
208.308	3528.03
211.683	3542.61
215.058	3545.9
218.433	3618.31
221.808	3634.73
225.183	3737.39
228.557	3823.22
231.932	3957.8
235.307	4098.13
238.682	4187.04
242.057	4296.27
245.431	4319.86
248.806	4294.72
252.181	4276.9
255.556	4236.68
258.931	4246.78
262.305	4088.93
265.68	4027.55
269.055	3953.69
272.43	3855.21
275.805	3730.52
279.18	3680.72
282.554	3626.12
285.929	3528.9
289.304	3446.31
292.679	3377.91
296.054	3253.48
299.428	3224.41
302.803	3208.28
306.178	3194.79
309.553	3163.59
312.928	3059.43
316.303	3053.03
319.677	3030.01
323.052	2983.97
326.427	2973.34
329.802	2961.11
333.177	2922.26
336.551	2863.54
339.926	2834.9
343.301	2776.32
346.676	2757.31
350.051	2754.74
353.426	2661.55
356.8	2635.14
360.175	2611.23
363.55	2574.2
366.925	2541.73
370.3	2485.09
373.675	2505.05
377.049	2453.93
380.424	2406.12
383.799	2345.54
387.174	2325.94
390.549	2306.32
393.923	2303.77
397.298	2271.08
400.673	2253.8
404.048	2196.79
407.423	2165.12
410.798	2146.82
414.172	2102.58
417.547	2110.93
420.922	2086.75
424.297	2071.32
427.671	2045.77
431.046	2030.84
434.421	2012.91
437.796	2010.14
441.171	1982.57
444.546	1988.38
447.92	1976.62
451.295	1961.01
454.67	1967.09
458.045	1973.12
461.42	1985.32
464.795	2003.32
468.169	2023.49
471.544	2049.16
474.919	2026.4
478.294	2044.39
481.669	2052.49
485.043	2085.27
488.418	2089.96
491.793	2111.35
495.168	2088.75
498.543	2082
501.918	2057.1
505.292	2027.92
508.667	2018
512.042	2027.63
515.417	1998.54
518.792	1993.73
522.166	1969.75
525.541	1933.36
528.916	1906.34
532.291	1864.12
535.666	1856.92
539.04	1857.72
542.415	1839.41
545.79	1809.83
549.165	1814.76
552.54	1794.58
555.915	1806.34
559.289	1807.6
562.664	1808.38
566.039	1770.25
569.414	1769.97
572.789	1795.86
576.163	1787.39
579.538	1793.86
582.913	1795.63
586.288	1784.56
589.663	1779.77
593.038	1757.67
596.412	1771.24
599.787	1753.19
603.162	1737.21
606.537	1726.97
609.912	1675.16
613.287	1644.76
616.661	1604.12
620.036	1583.9
623.411	1546.97
626.786	1498.99
630.161	1493.76
633.535	1482.84
636.91	1439.82
640.285	1422.33
643.66	1421.24
647.035	1372.96
650.409	1381.23
653.784	1364.74
657.159	1359.92
660.534	1338.05
663.909	1290.32
667.284	1268.44
670.658	1245.58
674.033	1216.26
677.408	1217.04
680.783	1180.6
684.158	1154.06
687.533	1159.12
690.907	1142.46
694.282	1133.07
697.657	1137.63
701.032	1137.41
704.407	1111.56
707.781	1103.95
711.156	1110.74
714.531	1122.36
717.906	1089.21
721.281	1101.01
724.655	1064.23
728.03	1083.28
731.405	1076.6
734.78	1071.4
738.155	1036.71
741.529	1048.49
744.904	1056.99
748.279	1074.85
751.654	1075.12
755.029	1090.34
758.404	1083.49
761.778	1098.61
765.153	1105.21
768.528	1122.01
771.903	1146.93
775.278	1161.14
778.653	1196.93
782.027	1183.77
785.402	1233.13
788.777	1268.21
792.152	1271.81
795.527	1296.63
798.901	1322.27
802.276	1357.46
805.651	1411.91
809.026	1443.19
812.401	1472.98
815.775	1524.63
819.15	1561.61
822.525	1623.16
825.9	1653.83
829.275	1703.13
832.65	1770.78
836.024	1822.31
839.399	1849.8
842.774	1925.84
846.149	1964.93
849.524	2057.08
852.899	2113.68
856.273	2190.99
859.648	2252.75
863.023	2329.11
866.398	2352.06
869.773	2495.67
873.148	2494.12
876.522	2591.14
879.897	2655.85
883.272	2821.88
886.647	2862.66
890.021	2939.98
893.396	3020.9
896.771	3128.01
900.146	3233.64
903.521	3348.52
906.896	3426.76
910.27	3575.99
913.645	3735.04
917.02	3796.76
920.395	3926.4
923.77	4057.88
927.144	4171.64
930.519	4357.32
933.894	4510.74
937.269	4639.98
940.644	4763.06
944.019	4969.51
947.393	5110.15
950.768	5301.72
954.143	5503.14
957.518	5658.36
960.893	5896.33
964.268	6128.51
967.642	6331.26
971.017	6560.19
974.392	6756.23
977.767	7037.27
981.142	7285.14
984.516	7552.69
987.891	7870.63
991.266	8141.21
994.641	8561.73
998.016	8898.34
1001.39	9385.19
1004.76	9797.53
1008.14	10233.8
1011.51	10795.8
1014.89	11491.1
1018.26	12235.5
1021.64	13059.1
1025.01	13940.4
1028.39	15097.9
1031.76	16278.1
1035.14	17720
1038.51	19246.2
1041.89	21151.9
1045.26	23143.5
1048.64	25511.4
1052.01	28157
1055.39	31131.8
1058.76	34253.5
1062.14	37209.9
1065.51	40348.5
1068.89	43460.6
1072.26	46158.4
1075.64	48640.7
1079.01	50765.5
1082.39	53033.8
1085.76	55103.8
1089.14	57964.6
1092.51	60960.2
1095.88	64247.6
1099.26	67149.1
1102.63	69833.2
1106.01	71432.1
1109.38	72048
1112.76	71763.2
1116.13	70606.2
1119.51	69714.5
1122.88	69137.5
1126.26	69628.5
1129.63	71348.6
1133.01	74327.7
1136.38	78789.9
1139.76	84483.6
1143.13	90848.9
1146.51	97288.9
1149.88	102808
1153.26	107355
1156.63	110383
1160.01	111590
1163.38	111521
1166.76	110081
1170.13	108510
1173.51	106582
1176.88	104746
1180.26	102858
1183.63	100838
1187.01	99115.6
1190.38	97538.1
1193.76	94883.2
1197.13	92851.3
1200.51	90337.4
1203.88	87377.6
1207.25	83739.8
1210.63	80102.6
1214	75614.9
1217.38	70899.5
1220.75	66064.9
1224.13	61705
1227.5	57889.2
1230.88	54853.1
1234.25	52907
1237.63	51891.4
1241	51452.4
1244.38	51821.7
1247.75	52356.3
1251.13	52609
1254.5	52623.2
1257.88	52110.4
1261.25	51242.4
1264.63	49833.9
1268	47764.7
1271.38	45596.3
1274.75	0
1278.12	0
1281.5	0
1284.88	0
1288.25	0
1291.62	0
1295	0
1298.37	0
