Measurement: Raman, 780 nm, unoriented, Raman Data Processed
Mineral: Tyrolite
Rruff sample: R050231
Ideal chemistry: Ca_2_Cu^2+^_9_(As^5+^O_4_)_4_(CO_3_)(OH)_8_11H_2_O
Locality: Tyrol, Austria
Source: Marcus Origlieri
Description: Thin green scaly crystals
Measured chemistry: (Ca_0.80_Fe^2+^_0.20_)_Σ=1_(Cu_4.86_Zn_0.11_[box]_0.03_)_Σ=5_((As_0.96_S_0.03_P_0.01_)_Σ=1_O4)_2_(CO_3_)(OH)_4_·6H_2_O
Raman shift (cm-1)	intensity
145.869	0
148.761	0.476361
151.654	0.450158
154.547	0.763891
157.439	0.648672
160.332	0.867994
163.225	0.289033
166.117	0.382719
169.01	0.322038
171.903	0.698977
174.796	0.096572
177.688	0.786667
180.581	0.88394
183.474	0.793801
186.366	0.263118
189.259	0.744349
192.152	0.694092
195.044	0.050469
197.937	0.323279
200.83	0.33658
203.722	0.026316
206.615	0.615363
209.508	0.00324
212.4	0.227198
215.293	0.170883
218.186	0.5132
221.079	0.146198
223.971	0.419657
226.864	0.155136
229.757	0.300085
232.649	0.325288
235.542	0.554395
238.435	0.72059
241.327	0.513007
244.22	0.624655
247.113	0.186171
250.006	0.241875
252.898	0.395013
255.791	0.566573
258.684	0.273753
261.576	0.324953
264.469	0.283954
267.362	0.722119
270.255	0.296473
273.147	0.072613
276.04	0.103128
278.933	0.069179
281.825	0.379612
284.718	0.808785
287.611	0.325963
290.503	0.448268
293.396	0.328245
296.289	0.72183
299.182	0.280862
302.074	0.337541
304.967	0.308001
307.86	0.356112
310.752	0.5015
313.645	0.15221
316.538	0.594813
319.43	0.360729
322.323	0.471642
325.216	0.754311
328.109	0.057948
331.001	0.356194
333.894	0.413356
336.787	0.069531
339.679	0.00062
342.572	0.359597
345.465	0.00696
348.357	0.085945
351.25	0.49503
354.143	0.49449
357.036	0.092304
359.928	0.643554
362.821	0.30249
365.714	0.606399
368.606	0.49079
371.499	0.09476
374.392	0.197076
377.284	0.362829
380.177	0.520241
383.07	0.462498
385.962	0.270873
388.855	0.323457
391.748	0.133169
394.641	0.524064
397.533	0.253477
400.426	0.688322
403.319	0.181692
406.211	0.129006
409.104	0.216706
411.997	0.638083
414.889	0.703443
417.782	0.34437
420.675	0.259357
423.568	0.350929
426.46	0.537853
429.353	0.47943
432.246	0.505491
435.138	0.722505
438.031	0.64848
440.924	0.464954
443.817	0.067788
446.709	0.780571
449.602	0.306053
452.495	0.282613
455.387	0.439726
458.28	0.234973
461.173	0.21956
464.065	0.107943
466.958	0.516753
469.851	0.198916
472.743	0.634908
475.636	0.538465
478.529	0.837945
481.422	0.829124
484.314	1.15646
487.207	0.56705
490.1	0.996068
492.992	0.813015
495.885	0.742747
498.778	0.591556
501.671	0.823449
504.563	0.537658
507.456	0.74427
510.349	0.318521
513.241	0.490993
516.134	0.723185
519.027	0.801437
521.919	0.785379
524.812	0.462972
527.705	0.525711
530.597	0.69056
533.49	0.665762
536.383	0.381981
539.276	0.280007
542.168	0.274338
545.061	0.56122
547.954	0.247354
550.846	0.538912
553.739	0.464065
556.632	0.323961
559.524	0.436321
562.417	0.185263
565.31	0.418236
568.203	0.521895
571.095	0.23667
573.988	0.100539
576.881	0.531193
579.773	0.17977
582.666	0.339284
585.559	0.388154
588.452	0.340598
591.344	0.005464
594.237	0.558505
597.13	0.257992
600.022	0.037104
602.915	0.67169
605.808	0.422487
608.7	0.271173
611.593	0.481535
614.486	0.803116
617.379	0.0496
620.271	0.667758
623.164	0.236338
626.057	0.384503
628.949	0.275038
631.842	0.350023
634.735	0.179807
637.627	0.425298
640.52	0.321677
643.413	0.452896
646.306	0.202653
649.198	0.289475
652.091	0.369497
654.984	0.360215
657.876	0.418822
660.769	0.396509
663.662	0.63458
666.554	0.017809
669.447	0.194118
672.34	0.583234
675.232	0.674587
678.125	0.575124
681.018	0.439513
683.911	0.106827
686.803	0.378911
689.696	0.367036
692.589	0.365832
695.481	0.460746
698.374	0.005403
701.267	0.226522
704.159	0.035493
707.052	0.496494
709.945	0.271527
712.838	0.205785
715.73	0.021285
718.623	0.078642
721.516	0.07313
724.408	0.222165
727.301	0.153097
730.194	0.10059
733.087	0.112864
735.979	0.351705
738.872	0.173654
741.765	0.260561
744.657	0.141548
747.55	0.019847
750.443	0.158973
753.335	0.229852
756.228	0.158184
759.121	0.280867
762.014	0.346589
764.906	0.160148
767.799	0.59256
770.692	0.308546
773.584	0.259478
776.477	0.273004
779.37	0.254784
782.262	0.009685
785.155	0.700889
788.048	0.868429
790.941	0.92605
793.833	0.352357
796.726	0.6449
799.619	0.688695
802.511	0.589411
805.404	0.937249
808.297	0.718835
811.189	0.839614
814.082	0.70995
816.975	0.633493
819.867	1.07963
822.76	0.850075
825.653	0.946315
828.546	1.13581
831.438	1.34782
834.331	1.76873
837.224	1.70881
840.116	1.71692
843.009	0.994699
845.902	1.09467
848.794	1.39521
851.687	0.678267
854.58	0.665758
857.473	0.63364
860.365	0.567474
863.258	0.625874
866.151	0.561064
869.043	0.644149
871.936	0.702046
874.829	0.244687
877.721	0.249816
880.614	0.016336
883.507	0.360548
886.4	0.035025
889.292	0.19679
892.185	0.143159
895.078	0.356296
897.97	0.245611
900.863	0.335327
903.756	0.261354
906.649	0.457979
909.541	0.414376
912.434	0.010876
915.327	0.200759
918.219	0.134699
921.112	0.250243
924.005	0.102871
926.897	0.217468
929.79	0.170888
932.683	0.434253
935.575	0.320708
938.468	0.508134
941.361	0.793531
944.254	0.595014
947.146	0.681335
950.039	0.327945
952.932	0.285928
955.824	0.208937
958.717	0.041838
961.61	0.150558
964.502	0.106044
967.395	0.605767
970.288	0.268949
973.181	0.242912
976.073	0.297144
978.966	0.113826
981.859	0.192031
984.751	0.681932
987.644	0.3052
990.537	0.718011
993.429	0.071423
996.322	0.364234
999.215	0.05353
1002.11	0.058935
1005	0.305449
1007.89	0.44901
1010.79	0.283505
1013.68	0.321933
1016.57	0.429613
1019.46	0.000201
1022.36	0.283397
1025.25	0.456087
1028.14	0.416753
1031.04	0.03538
1033.93	0.036045
1036.82	0.719277
1039.71	0.342691
1042.61	0.09919
1045.5	0.511646
1048.39	0.388969
1051.28	0.715425
1054.18	0.083336
1057.07	0.418617
1059.96	0.277121
1062.85	0.046535
1065.75	0.436362
1068.64	0.163285
1071.53	0.309256
1074.42	0.216485
1077.32	0.22725
1080.21	0.412588
1083.1	0.07391
1086	0.212869
1088.89	0.243752
1091.78	0.100457
1094.67	0.366313
1097.57	0.177238
1100.46	0.109941
1103.35	0.109995
1106.24	0.119894
1109.14	0.051899
1112.03	0.171515
1114.92	0.085126
1117.82	0.293951
1120.71	0.090275
1123.6	0.265679
1126.49	0.787676
1129.39	0.336288
1132.28	0.385694
1135.17	0.518875
1138.06	0.279281
1140.96	0.627021
1143.85	0.001259
1146.74	0.209461
1149.63	0.085372
1152.53	0.293793
1155.42	0.336752
1158.31	0.341881
1161.21	0.29902
1164.1	0.257223
1166.99	0.281861
1169.88	0.330289
1172.78	0.489499
1175.67	0.279367
1178.56	0.3162
1181.45	0.483166
1184.35	0.494321
1187.24	0.638004
1190.13	0.247938
1193.03	0.655258
1195.92	0.511274
1198.81	0.574887
1201.7	0.049358
1204.6	0.627319
1207.49	0.411432
1210.38	0.064802
1213.28	0.484619
1216.17	0.100424
1219.06	0.03112
1221.95	0.516827
1224.85	0.360458
1227.74	0.161485
1230.63	0.40509
1233.52	0.085549
1236.42	0.144184
1239.31	0.302026
1242.2	0.374509
1245.09	0.692199
1247.99	0.523957
1250.88	0.111488
1253.77	0.181309
1256.66	0.524051
1259.56	0.256796
1262.45	0.301078
1265.34	0.139121
1268.24	0.354853
1271.13	0.233146
1274.02	0.205191
1276.91	0.300645
1279.81	0.167714
