Measurement: Raman, 780 nm, unoriented, Raman Data Processed
Mineral: Tyrolite
Rruff sample: R050571
Ideal chemistry: Ca_2_Cu^2+^_9_(As^5+^O_4_)_4_(CO_3_)(OH)_8_11H_2_O
Locality: Penamellera, Spain
Source: University of Arizona Mineral Museum
Description: Pale blue foliated coating, tyrolite-2M polytype
Measured chemistry: Ca_1.00_(Cu_4.95_Fe_0.03_Zn_0.02_)_Σ=5_(As_1.00_O_4_)_2_(CO_3_)(OH)_4_·6H_2_O
Raman shift (cm-1)	intensity
92.0654	0
95.4403	0.015984
98.8151	16.0448
102.19	1.94061
105.565	26.1368
108.939	15.0586
112.314	13.7809
115.689	4.71051
119.064	18.7984
122.439	25.7646
125.814	19.0629
129.188	9.42606
132.563	7.59879
135.938	19.8381
139.313	5.38232
142.688	5.46776
146.062	9.46922
149.437	14.2835
152.812	23.4038
156.187	14.7143
159.562	11.9565
162.936	13.3447
166.311	8.11209
169.686	16.7615
173.061	6.71808
176.436	5.05152
179.811	18.3396
183.185	7.81049
186.56	4.3965
189.935	0.564834
193.31	12.9292
196.685	9.5307
200.06	11.0443
203.434	23.2601
206.809	15.4367
210.184	14.5124
213.559	14.3942
216.934	11.5163
220.308	14.0439
223.683	21.6807
227.058	14.837
230.433	7.02101
233.808	12.2179
237.182	8.63734
240.557	3.99987
243.932	17.9021
247.307	13.2235
250.682	8.44683
254.056	10.2376
257.431	28.5949
260.806	1.08287
264.181	10.6535
267.556	4.33758
270.931	17.1346
274.305	19.0654
277.68	25.1418
281.055	17.4966
284.43	7.20917
287.805	9.88491
291.18	12.5472
294.554	24.6014
297.929	14.7792
301.304	5.13504
304.679	0.024917
308.054	7.91899
311.428	16.3063
314.803	24.1478
318.178	4.66348
321.553	12.5778
324.928	21.9942
328.302	8.74815
331.677	10.5226
335.052	0.913307
338.427	8.94887
341.802	16.8414
345.176	14.6302
348.551	2.47351
351.926	12.8878
355.301	21.0901
358.676	7.05822
362.051	5.32486
365.425	5.80229
368.8	11.1858
372.175	13.4218
375.55	14.4815
378.925	4.81978
382.3	3.10404
385.674	5.43078
389.049	8.53813
392.424	9.12683
395.799	7.26957
399.174	2.33474
402.548	6.76881
405.923	12.5451
409.298	8.78235
412.673	0.887666
416.048	7.15203
419.422	10.5569
422.797	1.32032
426.172	8.50539
429.547	9.97834
432.922	10.2366
436.296	7.05693
439.671	1.93707
443.046	4.88114
446.421	9.47974
449.796	7.51903
453.171	0.70086
456.545	11.1727
459.92	16.6092
463.295	0.645975
466.67	5.99797
470.045	12.3192
473.42	2.65856
476.794	8.31357
480.169	15.4061
483.544	15.4062
486.919	16.433
490.293	4.69409
493.668	0.632799
497.043	7.76642
500.418	0.818216
503.793	13.383
507.168	17.6471
510.542	16.1828
513.917	16.5268
517.292	7.58433
520.667	5.73352
524.042	18.28
527.417	7.27945
530.791	15.5398
534.166	5.10506
537.541	23.8683
540.916	14.268
544.291	4.13428
547.665	13.4127
551.04	6.6877
554.415	1.06503
557.79	9.88026
561.165	21.9716
564.539	11.8747
567.914	16.1317
571.289	24.6301
574.664	21.7587
578.039	12.1169
581.413	6.95099
584.788	9.98512
588.163	16.9116
591.538	13.756
594.913	16.3865
598.288	15.7364
601.662	3.33829
605.037	13.9839
608.412	10.1524
611.787	14.3668
615.162	8.0294
618.537	16.5313
621.911	17.8951
625.286	2.26482
628.661	1.6294
632.036	12.1611
635.41	13.101
638.785	14.3189
642.16	17.9591
645.535	8.58626
648.91	0.046471
652.285	14.1174
655.659	3.1762
659.034	8.88716
662.409	4.97718
665.784	14.9075
669.159	23.36
672.534	12.7091
675.908	15.8147
679.283	21.8449
682.658	11.2168
686.033	14.5748
689.408	0.566111
692.782	11.7567
696.157	14.6143
699.532	8.78371
702.907	13.0377
706.282	9.36827
709.656	9.34193
713.031	11.0127
716.406	3.90186
719.781	0.343922
723.156	1.19836
726.53	13.8054
729.905	10.3003
733.28	1.95751
736.655	5.83771
740.03	7.66214
743.405	11.1011
746.779	11.1086
750.154	18.2376
753.529	0.268032
756.904	14.7314
760.279	1.36874
763.654	0.735184
767.028	14.1998
770.403	5.99655
773.778	14.9707
777.153	13.0702
780.528	10.4491
783.902	21.5169
787.277	2.80953
790.652	19.9045
794.027	7.12836
797.402	10.482
800.776	21.6678
804.151	12.1427
807.526	11.6385
810.901	12.5781
814.276	3.4261
817.65	8.03027
821.025	10.2278
824.4	9.21372
827.775	19.7679
831.15	2.04078
834.525	14.5564
837.899	14.805
841.274	15.6908
844.649	10.2693
848.024	8.11992
851.399	22.6314
854.774	17.6395
858.148	13.3344
861.523	7.51206
864.898	30.5004
868.273	4.22037
871.648	15.9847
875.022	11.9838
878.397	5.43012
881.772	18.0671
885.147	12.3688
888.522	25.3935
891.896	6.92251
895.271	5.57322
898.646	5.30804
902.021	11.7299
905.396	11.8146
908.77	9.81853
912.145	16.5285
915.52	14.8195
918.895	5.31008
922.27	15.66
925.645	15.8361
929.019	6.90694
932.394	19.7074
935.769	16.0029
939.144	10.1705
942.519	18.1254
945.894	18.4069
949.268	4.09091
952.643	8.92469
956.018	8.41815
959.393	6.73287
962.768	10.311
966.142	7.64685
969.517	12.7481
972.892	12.1248
976.267	13.8529
979.642	17.0544
983.016	6.34063
986.391	6.00601
989.766	2.17536
993.141	17.9651
996.516	8.17258
999.89	11.197
1003.26	4.42864
1006.64	15.8726
1010.01	8.20824
1013.39	20.5623
1016.76	10.0868
1020.14	21.7312
1023.51	13.5065
1026.89	10.6157
1030.26	13.9054
1033.64	4.7071
1037.01	8.91648
1040.39	6.127
1043.76	19.2336
1047.14	2.82976
1050.51	8.25496
1053.89	19.664
1057.26	13.8634
1060.64	6.19753
1064.01	13.1269
1067.39	4.20313
1070.76	3.28292
1074.14	2.67065
1077.51	4.45769
1080.89	6.10345
1084.26	14.492
1087.64	1.67203
1091.01	14.9064
1094.38	6.58066
1097.76	12.6688
1101.13	17.9909
1104.51	11.5019
1107.88	13.4342
1111.26	5.90158
1114.63	6.17716
1118.01	3.11414
1121.38	11.0792
1124.76	10.0915
1128.13	5.66686
1131.51	6.23864
1134.88	1.38893
1138.26	16.026
1141.63	2.51922
1145.01	4.77308
1148.38	4.8891
1151.76	14.367
1155.13	6.95911
1158.51	2.6414
1161.88	9.48968
1165.26	2.83536
1168.63	11.8285
1172.01	7.50967
1175.38	2.43781
1178.76	5.03439
1182.13	2.41008
1185.51	14.1964
1188.88	21.82
1192.26	0.440675
1195.63	13.1137
1199.01	4.93592
1202.38	16.6627
1205.75	10.9345
1209.13	11.6442
1212.5	21.9872
1215.88	18.6209
1219.25	2.62798
1222.63	17.6999
1226	4.26295
1229.38	21.137
1232.75	14.9732
1236.13	14.0728
1239.5	14.7184
1242.88	3.66555
1246.25	11.3274
1249.63	14.2492
1253	12.4499
1256.38	8.00704
1259.75	6.04364
1263.13	11.8953
1266.5	5.88547
1269.88	27.9333
1273.25	15.2387
1276.62	0.88999
1280	7.95253
1283.38	0.202746
