Measurement: Raman, 780 nm, unoriented, Raman Data Processed
Mineral: Tyrolite
Rruff sample: R060264
Ideal chemistry: Ca_2_Cu^2+^_9_(As^5+^O_4_)_4_(CO_3_)(OH)_8_11H_2_O
Locality: Lovelock mine, Bolivia, Cottonwood Canyon, Churchill County, Nevada, USA
Source: Michael Scott
Description: Greenish-blue flat bladed crystals in radial aggregates
Raman shift (cm-1)	intensity
158.065	0
160.958	0.274143
163.851	9.46487
166.743	4.55933
169.636	5.09226
172.529	7.17817
175.422	4.03657
178.314	8.63689
181.207	4.28316
184.1	1.90876
186.992	12.292
189.885	4.49036
192.778	8.05667
195.67	9.52628
198.563	10.5342
201.456	7.06306
204.349	1.33421
207.241	0.812262
210.134	6.89443
213.027	9.64774
215.919	6.86826
218.812	0.173269
221.705	10.0051
224.597	9.01223
227.49	2.55313
230.383	8.58904
233.275	6.82001
236.168	7.27093
239.061	7.69562
241.954	5.99719
244.846	1.42217
247.739	8.3529
250.632	1.4271
253.524	5.82122
256.417	5.19568
259.31	10.7309
262.202	2.49463
265.095	6.12319
267.988	0.761923
270.881	3.66029
273.773	0.06909
276.666	8.5555
279.559	6.47584
282.451	3.62356
285.344	7.13083
288.237	4.03181
291.13	8.96364
294.022	5.73123
296.915	0.31913
299.808	3.99966
302.7	6.7873
305.593	8.08159
308.486	7.53713
311.378	6.54919
314.271	6.60986
317.164	5.37736
320.057	10.1976
322.949	8.35354
325.842	8.95246
328.735	3.58274
331.627	2.21793
334.52	8.2315
337.413	2.46312
340.305	8.9933
343.198	1.74903
346.091	0.389214
348.984	2.1718
351.876	6.81156
354.769	5.28824
357.662	6.05662
360.554	3.85342
363.447	4.36561
366.34	4.84441
369.233	1.90141
372.125	4.84833
375.018	3.21761
377.911	10.6044
380.803	0.74571
383.696	1.61493
386.589	2.82209
389.481	3.59178
392.374	2.80628
395.267	4.06258
398.159	5.50674
401.052	4.08203
403.945	3.93038
406.838	3.04394
409.73	1.96105
412.623	11.9566
415.516	8.9667
418.408	8.99243
421.301	1.8694
424.194	0.668104
427.087	6.47546
429.979	5.86813
432.872	6.67686
435.765	5.37385
438.657	2.86781
441.55	1.26292
444.443	5.19595
447.335	0.384489
450.228	0.002396
453.121	2.01196
456.014	10.9576
458.906	5.74863
461.799	4.8821
464.692	2.69886
467.584	10.7301
470.477	4.52425
473.37	2.97333
476.262	0.636543
479.155	3.50361
482.048	0.892956
484.94	8.03173
487.833	6.91155
490.726	9.72848
493.619	7.13298
496.511	6.1711
499.404	11.4021
502.297	5.97342
505.189	6.17562
508.082	2.66998
510.975	0.980488
513.867	5.90081
516.76	10.7741
519.653	0.142839
522.545	5.29258
525.438	3.59018
528.331	10.6376
531.224	7.8043
534.116	8.03742
537.009	6.49675
539.902	6.98222
542.794	6.77561
545.687	9.67572
548.58	5.69535
551.472	1.79645
554.365	5.17139
557.258	8.37875
560.151	12.0185
563.043	5.00904
565.936	7.34669
568.829	7.74764
571.721	9.53339
574.614	9.93594
577.507	5.20185
580.399	2.45522
583.292	5.70377
586.185	2.92915
589.078	3.99561
591.97	6.21363
594.863	8.11244
597.756	7.92991
600.649	7.53283
603.541	9.20246
606.434	2.49436
609.327	6.26212
612.219	7.2588
615.112	7.39039
618.005	6.60531
620.897	11.8319
623.79	8.14876
626.683	9.42476
629.576	10.7032
632.468	1.63312
635.361	5.68715
638.254	4.3798
641.146	1.97954
644.039	1.33765
646.932	12.292
649.824	5.05288
652.717	4.97852
655.61	6.83308
658.503	4.88967
661.395	2.43436
664.288	8.24566
667.181	8.64719
670.073	5.79686
672.966	6.99534
675.859	0.790121
678.751	8.9699
681.644	6.27306
684.537	1.71824
687.429	3.77275
690.322	1.95749
693.215	0.281097
696.108	0.484741
699	0.390856
701.893	3.43415
704.786	4.50052
707.678	3.6462
710.571	8.96497
713.464	5.54761
716.356	8.41314
719.249	0.484226
722.142	4.72419
725.035	2.53811
727.927	2.86382
730.82	2.14552
733.713	0.295601
736.605	2.51393
739.498	0.811518
742.391	7.86069
745.284	5.07855
748.176	0.015457
751.069	1.39752
753.962	1.02705
756.854	1.56074
759.747	2.27755
762.64	8.52343
765.532	3.68074
768.425	3.26336
771.318	2.91769
774.211	8.53935
777.103	2.92276
779.996	4.62495
782.889	5.53866
785.781	2.57003
788.674	9.52419
791.567	0.00658
794.459	1.65896
797.352	4.81041
800.245	3.0989
803.138	6.92977
806.03	7.01844
808.923	1.16046
811.816	5.74596
814.708	6.23904
817.601	7.10136
820.494	7.75084
823.386	8.11707
826.279	10.1093
829.172	5.36582
832.064	6.98889
834.957	6.35038
837.85	10.0611
840.743	11.4339
843.635	7.25343
846.528	8.06885
849.421	3.37184
852.313	7.15769
855.206	8.48081
858.099	4.85425
860.991	1.14928
863.884	9.04539
866.777	2.74834
869.67	5.8187
872.562	2.92064
875.455	0.821636
878.348	6.57858
881.24	11.8154
884.133	4.43449
887.026	4.35074
889.918	3.50372
892.811	2.92443
895.704	3.81732
898.597	3.16579
901.489	5.26531
904.382	1.80194
907.275	2.57679
910.167	4.28123
913.06	4.9997
915.953	5.09435
918.846	4.48249
921.738	2.84301
924.631	6.40362
927.524	6.64456
930.416	0.754051
933.309	0.486951
936.202	2.02859
939.094	1.85561
941.987	9.21778
944.88	4.61082
947.773	4.66047
950.665	5.84578
953.558	5.94762
956.451	4.64829
959.343	2.85678
962.236	8.38572
965.129	7.42841
968.021	6.77637
970.914	2.81425
973.807	6.0837
976.699	3.31214
979.592	7.45916
982.485	5.58576
985.378	11.4585
988.27	3.65187
991.163	3.3771
994.056	10.8158
996.948	8.07177
999.841	2.65948
1002.73	7.19811
1005.63	7.26784
1008.52	0.253352
1011.41	9.9364
1014.3	11.9482
1017.2	8.29653
1020.09	1.19187
1022.98	12.187
1025.88	7.15745
1028.77	6.65165
1031.66	4.07448
1034.55	2.39135
1037.45	1.1621
1040.34	3.28818
1043.23	9.84961
1046.12	1.61833
1049.02	5.47539
1051.91	8.40688
1054.8	4.67404
1057.69	4.27858
1060.59	3.86862
1063.48	7.55028
1066.37	1.89131
1069.27	6.25111
1072.16	5.56146
1075.05	7.93326
1077.94	4.74007
1080.84	6.90897
1083.73	0.497739
1086.62	5.37845
1089.52	3.59342
1092.41	1.94066
1095.3	7.64531
1098.19	2.81913
1101.09	1.96422
1103.98	10.6332
1106.87	4.82027
1109.76	6.76703
1112.66	4.79611
1115.55	7.06034
1118.44	6.72213
1121.34	4.91838
1124.23	7.51976
1127.12	4.80467
1130.01	3.18127
1132.9	5.39237
1135.8	5.68326
1138.69	6.29078
1141.58	7.61909
1144.48	1.55764
1147.37	5.58813
1150.26	3.47734
1153.15	4.14044
1156.05	5.84425
1158.94	9.09799
1161.83	4.02085
1164.72	4.31001
1167.62	8.49845
1170.51	4.32991
1173.4	3.22549
1176.3	8.1781
1179.19	2.18866
1182.08	4.80549
1184.97	3.75205
1187.87	2.36595
1190.76	5.48353
1193.65	6.36986
1196.55	2.56486
1199.44	4.05267
1202.33	5.79386
1205.22	4.82864
1208.12	0.972136
1211.01	7.61857
1213.9	2.53594
1216.79	10.3427
1219.69	2.46793
1222.58	6.55911
1225.47	5.48399
1228.37	5.02015
1231.26	1.33456
1234.15	5.95222
1237.04	5.35393
1239.93	9.13512
1242.83	6.00218
1245.72	10.2745
1248.61	3.96176
1251.51	6.48469
1254.4	2.33922
1257.29	6.97988
1260.18	6.67868
1263.08	8.00145
1265.97	0.213737
1268.86	7.60621
1271.76	2.60025
1274.65	6.9563
1277.54	2.27159
1280.43	2.94026
1283.33	4.66179
