Measurement: Raman, 532 nm, unoriented, Raman Data Processed
Mineral: Uchucchacuaite
Rruff sample: R070760
Ideal chemistry: Ag^1+^Mn^2+^Pb^2+^_3_Sb^3+^_5_S^2-^_12_
Locality: Inakuraishi mine, Shakotan peninsula, Shiribeshi Province, Hokkaido Island, Japan
Source: Michael Scott
Description: Steel gray metallic massive associated with rhodochrosite
Measured chemistry: Ag_1.00_(Mn_0.82_Sb_0.11_Ag_0.04_Bi_0.02_)_Î£=0.99_Pb_2.98_Sb_5.00_S_12.00_
Raman shift (cm-1)	intensity
169.334	4.56767
172.227	25.0451
175.119	23.059
178.012	9.07147
180.905	11.5722
183.798	12.2692
186.69	20.9157
189.583	26.3848
192.476	22.7026
195.368	24.5297
198.261	35.4162
201.154	14.9006
204.047	7.70558
206.939	9.10525
209.832	36.9298
212.725	62.9402
215.617	61.2465
218.51	43.6445
221.403	31.7007
224.295	76.1667
227.188	43.7007
230.081	62.9273
232.974	62.8309
235.866	18.0739
238.759	25.6377
241.652	2.57285
244.544	6.99867
247.437	9.20631
250.33	32.7823
253.222	1.49828
256.115	59.3011
259.008	65.6548
261.901	57.749
264.793	112.182
267.686	99.9843
270.579	124.454
273.471	103.167
276.364	121.83
279.257	88.9157
282.149	116.825
285.042	106.592
287.935	110.12
290.827	149.179
293.72	81.6052
296.613	55.598
299.506	26.6274
302.398	28.9758
305.291	7.33496
308.184	25.672
311.076	20.9375
313.969	35.7026
316.862	31.2922
319.755	34.598
322.647	79.9291
325.54	72.3432
328.433	76.1673
331.325	47.3796
334.218	81.1359
337.111	87.6356
340.003	117.879
342.896	132.715
345.789	137.369
348.682	98.7856
351.574	51.1883
354.467	31.3874
357.36	17.5643
360.252	33.4535
363.145	2.20244
366.038	19.0471
368.93	4.18066
371.823	9.08099
374.716	3.53873
377.608	8.14081
380.501	13.7324
383.394	7.31717
386.287	22.2805
389.179	31.3697
392.072	31.7791
394.965	25.1055
397.857	19.9286
400.75	21.8635
403.643	5.10666
406.536	40.3921
409.428	15.6974
412.321	51.2286
415.214	47.9148
418.106	28.0718
420.999	22.4945
423.892	10.6188
426.784	16.3722
429.677	34.5349
432.57	2.61319
435.462	26.0021
438.355	34.3556
441.248	12.187
444.141	12.4319
447.033	25.1372
449.926	17.363
452.819	32.8301
455.711	25.3883
458.604	13.717
461.497	56.2678
464.389	35.5733
467.282	32.3976
470.175	47.4712
473.067	26.6349
475.96	13.311
478.853	32.0156
481.746	43.5481
484.638	37.4091
487.531	34.6135
490.424	0.875038
493.316	4.00172
496.209	10.6951
499.102	22.8434
501.995	21.9862
504.887	18.6078
507.78	6.90602
510.673	12.759
513.565	28.0615
516.458	17.192
519.351	33.2027
522.243	21.9889
525.136	25.8623
528.029	34.2992
530.922	61.0461
533.814	22.4948
536.707	21.2764
539.6	9.09018
542.492	36.4131
545.385	11.8103
548.278	1.48178
551.17	7.86378
554.063	6.8903
556.956	34.3358
559.848	17.7292
562.741	4.59479
565.634	10.4132
568.527	23.2137
571.419	10.768
574.312	14.19
577.205	44.2377
580.097	33.3613
582.99	29.4373
585.883	41.8853
588.775	33.4926
591.668	18.3302
594.561	19.4137
597.454	6.60099
600.346	45.7559
603.239	16.6017
606.132	26.8773
609.024	40.595
611.917	25.639
614.81	10.0558
617.702	24.4096
620.595	21.2717
623.488	31.542
626.381	0.694151
629.273	20.5533
632.166	7.16914
635.059	11.2052
637.951	13.7878
640.844	22.9523
643.737	39.1088
646.63	9.71286
649.522	23.7825
652.415	39.3828
655.308	9.38622
658.2	34.1581
661.093	26.7532
663.986	13.8299
666.878	25.8044
669.771	13.3604
672.664	14.3038
675.557	0.02923
678.449	33.327
681.342	4.99489
684.235	15.666
687.127	48.1765
690.02	23.9506
692.913	21.2624
695.805	1.92367
698.698	34.8717
701.591	12.7903
704.484	26.3158
707.376	13.6189
710.269	1.59692
713.162	32.4137
716.054	11.2919
718.947	21.2072
721.84	13.0078
724.732	31.5483
727.625	31.6485
730.518	23.216
733.41	2.97147
736.303	21.7749
739.196	31.2957
742.089	21.1722
744.981	24.1351
747.874	20.9311
750.767	2.4313
753.659	8.97498
756.552	44.5896
759.445	7.38417
762.337	25.8087
765.23	24.1985
768.123	24.6346
771.016	5.23623
773.908	15.2037
776.801	2.32961
779.694	19.4714
782.586	24.078
785.479	35.5029
788.372	28.5882
791.264	5.15985
794.157	35.3009
797.05	15.7731
799.943	25.7082
802.835	34.2418
805.728	3.79613
808.621	8.15597
811.513	12.788
814.406	2.72645
817.299	22.4356
820.192	5.50713
823.084	5.88947
825.977	2.95473
828.87	20.347
831.762	21.2061
834.655	15.6513
837.548	5.39808
840.44	5.43882
843.333	8.95781
846.226	13.2468
849.118	17.0327
852.011	18.1462
854.904	4.51869
857.797	27.961
860.689	38.5096
863.582	15.657
866.475	24.8418
869.367	10.7241
872.26	11.2675
875.153	1.45041
878.045	31.0551
880.938	40.2077
883.831	12.8898
886.723	14.1717
889.616	23.9824
892.509	1.9561
895.402	31.9709
898.294	21.6925
901.187	1.69651
904.08	27.7229
906.972	11.8196
909.865	5.33743
912.758	17.4829
915.65	47.0955
918.543	5.72159
921.436	21.3562
924.329	22.9468
927.221	2.52546
930.114	25.6607
933.007	32.5686
935.899	16.1583
938.792	36.8967
941.685	14.3124
944.577	3.83431
947.47	31.7316
950.363	11.3422
953.256	31.807
956.148	7.22931
959.041	7.19452
961.934	11.5777
964.826	9.04055
967.719	28.945
970.612	27.8676
973.505	1.73062
976.397	7.58585
979.29	4.99218
982.183	17.8252
985.075	16.9731
987.968	29.4467
990.861	19.2514
993.753	5.6529
996.646	27.3027
999.539	22.9151
1002.43	11.5838
1005.32	22.0029
1008.22	5.67408
1011.11	5.53602
1014	9.95148
1016.89	1.49608
1019.79	2.97444
1022.68	11.4093
1025.57	30.9605
1028.47	21.8146
1031.36	15.696
1034.25	5.17145
1037.14	24.1264
1040.04	2.24029
1042.93	36.2617
1045.82	4.06674
1048.71	33.8632
1051.61	15.8352
1054.5	7.01377
1057.39	18.3057
1060.29	13.0557
1063.18	6.84969
1066.07	37.0619
1068.96	26.6841
1071.86	29.725
1074.75	29.344
1077.64	23.2979
1080.53	23.5114
1083.43	27.4761
1086.32	33.6439
1089.21	36.4396
1092.11	31.2998
1095	30.1106
1097.89	31.1239
1100.78	12.9656
1103.68	8.61052
1106.57	27.4933
1109.46	34.6694
1112.35	17.5826
1115.25	8.83926
1118.14	6.28244
1121.03	16.2964
1123.92	23.4394
1126.82	17.3862
1129.71	21.0108
1132.6	25.2281
1135.5	32.7963
1138.39	16.312
1141.28	26.1495
1144.17	19.0897
1147.07	16.0119
1149.96	10.4566
1152.85	17.2072
1155.74	3.82582
1158.64	13.2203
1161.53	35.8213
1164.42	7.05052
1167.32	14.6538
1170.21	18.275
1173.1	0.564293
1175.99	9.84422
1178.89	20.5855
1181.78	20.0571
1184.67	16.1852
1187.56	21.1705
1190.46	1.04389
1193.35	9.76097
1196.24	14.4723
1199.13	26.7972
1202.03	15.5528
1204.92	1.19583
1207.81	10.6637
1210.71	23.2605
1213.6	11.9114
1216.49	24.9143
1219.38	13.3374
1222.28	23.4072
1225.17	23.8498
1228.06	27.7719
1230.95	11.2975
1233.85	30.2597
1236.74	5.15773
1239.63	3.24882
1242.53	22.5737
1245.42	18.2812
1248.31	14.297
1251.2	40.0586
1254.1	24.0699
1256.99	19.9885
1259.88	8.45317
1262.77	20.7172
1265.67	4.37924
1268.56	5.43797
1271.45	27.2729
1274.35	15.4376
1277.24	0.113398
