Measurement: Raman, 532 nm, unoriented, Raman Data Processed
Mineral: Uchucchacuaite
Rruff sample: R100213
Ideal chemistry: Ag^1+^Mn^2+^Pb^2+^_3_Sb^3+^_5_S^2-^_12_
Locality: Uchuc-Chacua, Lima, Peru
Source: Mark N. Feinglos
Description: Bright silver metallic massive, associated with quartz
Measured chemistry: Ag_0.99_(Mn_0.92_Pb_0.03_Sb_0.02_Bi_0.01_)_Î£=0.98_Pb_3.00_Sb_5.00_S_12.00_ ; (Note: bright phase is galena, PbS)
Raman shift (cm-1)	intensity
179.745	0
182.637	3.67143
185.53	1.32418
188.423	14.8316
191.315	3.8326
194.208	14.1905
197.101	6.58427
199.994	16.2523
202.886	7.42855
205.779	8.90406
208.672	7.8086
211.565	22.4718
214.457	20.1454
217.35	20.2738
220.243	24.2205
223.135	8.61245
226.028	11.1148
228.921	5.50192
231.813	10.9248
234.706	19.9638
237.599	12.5484
240.492	8.57757
243.384	0.616486
246.277	11.2023
249.17	7.75668
252.062	11.6705
254.955	20.3551
257.848	20.5127
260.74	16.0015
263.633	20.2554
266.526	15.7161
269.418	9.69427
272.311	10.811
275.204	25.1868
278.097	20.4076
280.989	24.3501
283.882	16.1864
286.775	6.71088
289.667	13.2969
292.56	7.63499
295.453	8.30587
298.346	17.3109
301.238	7.25195
304.131	10.0017
307.024	5.27202
309.916	9.3664
312.809	2.10277
315.702	9.32284
318.594	11.1435
321.487	8.09334
324.38	12.363
327.273	13.7363
330.165	11.9824
333.058	4.29793
335.951	5.01134
338.843	18.3816
341.736	22.4279
344.629	29.9979
347.522	30.3303
350.414	15.6369
353.307	15.6833
356.2	8.64261
359.092	7.25887
361.985	8.47948
364.878	3.40331
367.77	4.93072
370.663	12.2043
373.556	8.04195
376.449	3.55182
379.341	8.13707
382.234	3.99008
385.127	6.7161
388.019	1.56168
390.912	2.0078
393.805	10.2529
396.697	2.54779
399.59	0.569656
402.483	7.94479
405.376	7.99349
408.268	8.7289
411.161	0.768295
414.054	8.04736
416.946	5.94281
419.839	16.0923
422.732	7.05226
425.625	1.13783
428.517	11.9657
431.41	15.0315
434.303	9.01617
437.195	18.1712
440.088	6.361
442.981	14.6731
445.873	10.6638
448.766	14.8906
451.659	3.0917
454.551	8.04002
457.444	7.45908
460.337	11.4098
463.23	5.45156
466.122	12.2114
469.015	14.958
471.908	12.6403
474.8	6.8455
477.693	5.28622
480.586	3.4568
483.479	14.7159
486.371	2.34116
489.264	7.22245
492.157	5.18176
495.049	0.035896
497.942	11.1966
500.835	8.49538
503.728	3.87907
506.62	13.6764
509.513	14.9852
512.406	6.18189
515.298	1.16887
518.191	5.9292
521.084	0.672455
523.976	6.0854
526.869	9.27794
529.762	13.6416
532.654	20.0269
535.547	16.5412
538.44	8.66457
541.333	12.0665
544.225	11.2052
547.118	0.703453
550.011	11.9975
552.903	8.14602
555.796	12.5612
558.689	12.1296
561.582	1.6744
564.474	10.7476
567.367	10.8801
570.26	10.1942
573.152	7.47536
576.045	2.67519
578.938	6.05336
581.83	6.8135
584.723	4.85088
587.616	4.46007
590.509	3.3409
593.401	7.15514
596.294	11.4861
599.187	13.3437
602.079	5.20791
604.972	10.0092
607.865	11.139
610.758	13.1898
613.65	4.56455
616.543	6.47098
619.436	2.22951
622.328	5.38054
625.221	6.68607
628.114	6.97349
631.006	2.10016
633.899	8.02663
636.792	2.95616
639.684	13.5014
642.577	6.70207
645.47	5.64425
648.363	5.91573
651.255	1.94412
654.148	14.1655
657.041	12.8512
659.933	7.60403
662.826	5.78958
665.719	3.86898
668.612	11.1354
671.504	5.56666
674.397	0.532509
677.29	12.4007
680.182	0.202713
683.075	2.94867
685.968	13.1951
688.861	11.3967
691.753	11.032
694.646	3.74971
697.539	16.8356
700.431	15.5826
703.324	4.40532
706.217	12.4245
709.109	8.20737
712.002	15.6774
714.895	4.25489
717.788	8.03197
720.68	11.0334
723.573	9.85801
726.466	12.4364
729.358	13.8684
732.251	10.7467
735.144	6.42542
738.036	11.9036
740.929	9.51763
743.822	9.7917
746.715	11.2382
749.607	2.98759
752.5	1.49768
755.393	5.3836
758.285	8.82296
761.178	7.19813
764.071	3.66828
766.963	16.6476
769.856	13.4212
772.749	10.3445
775.642	10.5984
778.534	8.19431
781.427	4.47492
784.32	8.99685
787.212	9.49407
790.105	4.70145
792.998	1.95194
795.89	11.8815
798.783	3.61002
801.676	6.97343
804.569	7.16307
807.461	11.7349
810.354	5.67449
813.247	8.17152
816.139	10.0755
819.032	4.4739
821.925	9.66002
824.818	3.50033
827.71	0.596115
830.603	14.4295
833.496	1.5432
836.388	14.747
839.281	4.29458
842.174	4.81782
845.067	10.515
847.959	6.97419
850.852	2.21771
853.745	10.9948
856.637	5.77899
859.53	5.6733
862.423	1.44147
865.315	12.6039
868.208	2.98142
871.101	7.39949
873.994	15.3751
876.886	13.0174
879.779	6.1304
882.672	4.57989
885.564	5.70357
888.457	6.00424
891.35	7.52906
894.242	2.03037
897.135	5.28083
900.028	3.683
902.92	15.3397
905.813	4.92984
908.706	5.88941
911.599	7.38293
914.491	0.684952
917.384	7.78843
920.277	5.50085
923.169	7.55778
926.062	6.8064
928.955	10.3349
931.847	6.28681
934.74	9.27706
937.633	10.4111
940.526	5.63166
943.418	2.03417
946.311	2.35879
949.204	4.03429
952.096	5.51259
954.989	14.6895
957.882	5.00694
960.775	11.3422
963.667	7.14095
966.56	2.1067
969.453	3.3306
972.345	7.00346
975.238	6.29719
978.131	11.6104
981.024	5.20942
983.916	20.8736
986.809	12.0805
989.702	8.90103
992.594	12.0377
995.487	11.1442
998.38	4.82774
1001.27	9.7579
1004.16	11.7174
1007.06	6.27097
1009.95	5.34215
1012.84	4.01061
1015.74	9.34827
1018.63	12.2751
1021.52	9.72191
1024.41	6.4646
1027.31	2.67188
1030.2	6.92558
1033.09	8.34069
1035.98	13.8599
1038.88	7.13937
1041.77	1.49298
1044.66	3.75167
1047.56	6.53047
1050.45	2.94006
1053.34	2.827
1056.23	9.19282
1059.13	11.0188
1062.02	10.6616
1064.91	5.55961
1067.81	2.23554
1070.7	3.46612
1073.59	11.0322
1076.48	9.03265
1079.38	6.536
1082.27	2.21376
1085.16	15.0702
1088.05	7.65878
1090.95	17.9338
1093.84	7.16849
1096.73	4.45677
1099.62	10.3412
1102.52	12.173
1105.41	1.99062
1108.3	0.461205
1111.19	4.57273
1114.09	4.35235
1116.98	6.94844
1119.87	5.34567
1122.77	5.67323
1125.66	0.220451
1128.55	18.5079
1131.44	7.05477
1134.34	1.26502
1137.23	13.6973
1140.12	7.79326
1143.02	10.4855
1145.91	2.56671
1148.8	6.57948
1151.69	7.15652
1154.59	8.81811
1157.48	5.05058
1160.37	9.21368
1163.26	6.72587
1166.16	4.82163
1169.05	14.2076
1171.94	8.90926
1174.84	1.47709
1177.73	9.01955
1180.62	11.2614
1183.51	5.20747
1186.4	6.81125
1189.3	8.48788
1192.19	8.95029
1195.08	4.98578
1197.98	3.70568
1200.87	6.37752
1203.76	3.01292
1206.65	12.252
1209.55	7.01002
1212.44	7.72376
1215.33	2.53694
1218.22	8.16298
1221.12	8.3484
1224.01	6.77879
1226.9	15.1355
1229.8	2.42233
1232.69	2.12572
1235.58	10.3646
1238.47	8.77544
1241.37	5.24576
1244.26	2.01276
1247.15	9.97327
1250.05	4.45223
1252.94	8.19936
1255.83	10.9608
1258.72	4.54952
1261.62	6.54244
1264.51	4.81625
1267.4	9.51507
1270.29	12.0099
1273.19	2.25985
1276.08	5.22567
1278.97	2.29254
1281.87	4.93529
1284.76	4.17119
1287.65	3.07044
1290.54	4.8413
1293.43	7.19438
1296.33	6.0791
1299.22	8.98574
1302.11	0.388718
