Measurement: Raman, 785 nm, unoriented, Raman Data Processed
Mineral: Ullmannite
Rruff sample: R070541
Ideal chemistry: NiSbS
Locality: Oms, Pyrennes Mountains, Spain
Source: James Shigley
Description: Steel gray massive
Raman shift (cm-1)	intensity
173.469	0
176.361	144.102
179.254	113.088
182.147	0.289795
185.039	124.07
187.932	394.959
190.825	206.078
193.718	192.705
196.61	205.909
199.503	155.22
202.396	224.575
205.288	214.422
208.181	141.986
211.074	88.8434
213.966	94.9087
216.859	46.1848
219.752	55.1633
222.644	32.5579
225.537	9.44995
228.43	2.12097
231.323	16.748
234.215	35.1198
237.108	82.7655
240.001	149.923
242.893	202.503
245.786	200.502
248.679	256.46
251.571	314.004
254.464	419.669
257.357	381.503
260.25	302.387
263.142	233.007
266.035	191.153
268.928	182.797
271.82	200.603
274.713	236.833
277.606	220.175
280.498	246.714
283.391	240.637
286.284	234.445
289.177	182.502
292.069	121.428
294.962	104.794
297.855	92.6652
300.747	77.672
303.64	64.29
306.533	74.1965
309.425	72.2806
312.318	68.3308
315.211	75.221
318.104	37.5952
320.996	41.3276
323.889	26.6267
326.782	21.0546
329.674	14.085
332.567	5.97192
335.46	18.3481
338.353	9.9696
341.245	10.7606
344.138	20.354
347.031	20.1126
349.923	15.3635
352.816	16.0118
355.709	28.4797
358.601	25.7966
361.494	11.7955
364.387	8.23358
367.279	9.79285
370.172	6.9314
373.065	1.34485
375.958	19.5436
378.85	12.9518
381.743	10.2081
384.636	20.1334
387.528	12.4106
390.421	17.3855
393.314	2.26569
396.207	10.2953
399.099	24.4202
401.992	18.326
404.885	22.7583
407.777	11.5635
410.67	12.5226
413.563	21.3356
416.455	9.50409
419.348	15.533
422.241	8.27911
425.134	7.33533
428.026	26.4901
430.919	5.11572
433.812	14.6776
436.704	0.896057
439.597	6.06354
442.49	11.9045
445.382	24.014
448.275	5.46408
451.168	6.76547
454.06	20.8213
456.953	22.4768
459.846	9.52445
462.739	22.1238
465.631	17.6136
468.524	9.70694
471.417	14.8209
474.309	11.0284
477.202	11.1401
480.095	9.64404
482.988	23.0456
485.88	9.79904
488.773	26.293
491.666	31.0045
494.558	11.5242
497.451	30.9341
500.344	15.2354
503.236	23.0245
506.129	10.6029
509.022	13.6735
511.914	17.5646
514.807	9.58527
517.7	6.2681
520.593	2.06152
523.485	14.6338
526.378	21.4359
529.271	4.06082
532.163	14.4383
535.056	14.5107
537.949	19.0678
540.842	18.168
543.734	25.6405
546.627	0.211578
549.52	13.0672
552.412	33.1774
555.305	8.25101
558.198	17.6791
561.091	9.52139
563.983	16.0977
566.876	28.3252
569.769	9.74695
572.661	21.5283
575.554	26.7297
578.447	8.34045
581.339	9.3797
584.232	16.8895
587.125	32.9378
590.017	10.0045
592.91	19.9431
595.803	11.1968
598.696	28.7293
601.588	8.58606
604.481	10.5467
607.374	12.6256
610.266	15.4019
613.159	34.3391
616.052	26.766
618.944	26.3159
621.837	23.9455
624.73	7.9614
627.622	24.8578
630.515	11.6187
633.408	21.5072
636.301	1.60828
639.193	22.1539
642.086	29.5088
644.979	19.6014
647.871	25.3184
650.764	28.6269
653.657	30.2761
656.549	30.4691
659.442	11.0364
662.335	17.9397
665.228	17.7662
668.12	4.53198
671.013	14.2091
673.906	1.55142
676.798	21.4004
679.691	15.8265
682.584	12.8276
685.476	4.0466
688.369	14.3841
691.262	18.1412
694.155	12.8151
697.047	14.8706
699.94	22.5403
702.833	21.1875
705.725	9.12747
708.618	16.2238
711.511	5.6882
714.404	3.40772
717.296	15.5552
720.189	15.9192
723.082	29.2712
725.974	7.43311
728.867	15.6623
731.76	3.81619
734.652	17.7904
737.545	5.59998
740.438	15.0353
743.331	13.1177
746.223	7.47964
749.116	3.61249
752.009	1.77151
754.901	20.5908
757.794	14.4399
760.687	17.9929
763.579	10.6796
766.472	6.61578
769.365	13.8755
772.258	11.6839
775.15	2.26337
778.043	14.1355
780.936	14.5619
783.828	3.72076
786.721	4.52011
789.614	2.13031
792.506	9.64694
795.399	3.98486
798.292	7.42032
801.184	0.494293
804.077	14.2169
806.97	7.39172
809.863	9.46225
812.755	1.79288
815.648	18.567
818.541	16.6168
821.433	10.474
824.326	10.241
827.219	4.3302
830.111	25.8537
833.004	13.6248
835.897	13.7802
838.79	6.98328
841.682	19.202
844.575	6.5347
847.468	18.3048
850.36	0.335297
853.253	9.08679
856.146	19.2646
859.038	10.7672
861.931	33.8143
864.824	28.6532
867.717	4.10559
870.609	22.4648
873.502	18.9004
876.395	5.51227
879.287	18.0417
882.18	13.5123
885.073	4.07596
887.966	21.1171
890.858	20.3139
893.751	7.09613
896.644	26.289
899.536	19.3634
902.429	0.494385
905.322	10.4085
908.214	15.7464
911.107	22.9015
914	22.2255
916.893	37.662
919.785	19.5854
922.678	24.7222
925.571	0.307343
928.463	16.8939
931.356	13.3616
934.249	6.36118
937.141	19.091
940.034	9.7854
942.927	10.9074
945.819	17.9368
948.712	34.8904
951.605	9.06705
954.498	9.38226
957.39	23.4221
960.283	1.98633
963.176	20.1743
966.068	7.5098
968.961	16.5692
971.854	19.0827
974.746	19.4626
977.639	26.2023
980.532	13.6428
983.425	22.802
986.317	33.0696
989.21	23.6456
992.103	29.0547
994.995	20.2069
997.888	12.3267
1000.78	9.77808
1003.67	22.9467
1006.57	19.136
1009.46	23.4472
1012.35	17.9301
1015.24	9.84885
1018.14	12.175
1021.03	34.3189
1023.92	38.4197
1026.82	38.4349
1029.71	25.8806
1032.6	5.06436
1035.49	33.4044
1038.39	9.51102
1041.28	39.082
1044.17	28.537
1047.06	10.62
1049.96	20.6674
1052.85	8.50485
1055.74	33.1852
1058.63	10.7623
1061.53	4.64917
1064.42	5.33752
1067.31	12.2204
1070.21	4.04684
1073.1	15.3073
1075.99	13.0409
1078.88	15.4072
1081.78	39.4939
1084.67	17.4768
1087.56	25.8235
1090.45	21.7743
1093.35	21.4932
1096.24	11.9077
1099.13	5.73358
1102.03	2.47315
1104.92	12.8711
1107.81	14.4311
1110.7	6.1492
1113.6	0.428986
1116.49	21.6435
1119.38	12.9247
1122.27	17.8702
1125.17	27.2608
1128.06	17.0872
1130.95	6.2858
1133.85	3.48697
1136.74	12.5245
1139.63	13.6203
1142.52	24.9997
1145.42	7.25061
1148.31	11.575
1151.2	23.7255
1154.09	7.52026
1156.99	13.1987
1159.88	16.9031
1162.77	0.2771
1165.66	7.99152
1168.56	1.17081
1171.45	10.1736
1174.34	20.1258
1177.23	4.63104
1180.13	11.4978
1183.02	9.79114
1185.91	14.6134
1188.81	28.5174
1191.7	5.11041
1194.59	5.73767
1197.48	41.2375
1200.38	0.505463
1203.27	8.71591
1206.16	25.7618
1209.06	17.4262
1211.95	21.0802
1214.84	25.3838
1217.73	18.3937
1220.63	34.8867
1223.52	48.4542
1226.41	18.0978
1229.3	32.1759
1232.2	28.8877
1235.09	37.9541
1237.98	12.7934
1240.88	20.04
1243.77	15.275
1246.66	27.7767
1249.55	11.1661
1252.45	28.1724
1255.34	22.0739
1258.23	4.32233
1261.12	18.4529
1264.02	9.68243
