Measurement: Raman, 532 nm, unoriented, Raman Data Processed
Mineral: Uraninite
Rruff sample: R070747
Ideal chemistry: U^4+^O_2_
Locality: Topsham, Sagadahoc County, Maine, USA
Source: Michael Scott
Description: Elongated dodecahedral gray-black submetallic crystals
Raman shift (cm-1)	intensity
222.367	0
225.26	2.49103
228.152	16.3777
231.045	21.1744
233.938	34.7969
236.83	21.9251
239.723	23.7786
242.616	14.1187
245.508	33.0385
248.401	6.36585
251.294	20.6189
254.187	22.9761
257.079	9.7529
259.972	20.7075
262.865	36.6884
265.757	19.9104
268.65	3.54199
271.543	2.63119
274.435	26.4832
277.328	11.9638
280.221	19.361
283.114	4.99533
286.006	32.4513
288.899	40.0936
291.792	43.9565
294.684	16.867
297.577	37.4717
300.47	8.33536
303.363	34.1042
306.255	42.3994
309.148	24.8173
312.041	18.901
314.933	13.0433
317.826	7.94189
320.719	46.2537
323.611	23.8993
326.504	14.1912
329.397	10.9883
332.289	3.20831
335.182	19.3504
338.075	11.4028
340.968	13.7104
343.86	17.7385
346.753	17.9372
349.646	12.2597
352.538	1.22699
355.431	4.11169
358.324	39.7451
361.216	47.3522
364.109	20.6764
367.002	5.48813
369.895	1.66119
372.787	12.1508
375.68	22.0657
378.573	3.15619
381.465	2.61346
384.358	22.3258
387.251	12.5834
390.144	5.8971
393.036	3.80865
395.929	5.87143
398.822	28.243
401.714	4.17865
404.607	29.1717
407.5	0.128326
410.392	15.2356
413.285	31.3391
416.178	29.6813
419.07	39.0002
421.963	28.3496
424.856	23.7076
427.749	52.3832
430.641	34.6313
433.534	72.8748
436.427	64.5773
439.319	74.1231
442.212	74.5274
445.105	102.43
447.998	68.9261
450.89	90.116
453.783	84.9294
456.676	86.1834
459.568	81.325
462.461	68.0417
465.354	72.1802
468.246	77.6051
471.139	68.0907
474.032	85.5547
476.925	91.1529
479.817	64.7193
482.71	61.9665
485.603	53.0621
488.495	33.7131
491.388	55.1974
494.281	10.0827
497.173	39.0782
500.066	25.0492
502.959	17.3398
505.851	9.96045
508.744	9.10172
511.637	10.7151
514.529	29.492
517.422	2.33377
520.315	7.61716
523.208	10.863
526.1	11.323
528.993	7.50971
531.886	4.72485
534.778	1.82468
537.671	8.30627
540.564	11.3737
543.457	31.0522
546.349	25.5796
549.242	27.1991
552.135	22.0341
555.027	21.6715
557.92	27.4767
560.813	23.8809
563.705	27.3666
566.598	6.31186
569.491	24.3801
572.384	30.8048
575.276	37.314
578.169	26.9851
581.062	44.9501
583.954	15.4554
586.847	18.3229
589.74	42.9667
592.632	21.6793
595.525	27.2787
598.418	29.815
601.311	16.0175
604.203	44.3733
607.096	21.1697
609.989	17.1006
612.881	28.3983
615.774	31.4599
618.667	39.875
621.559	16.3519
624.452	32.5349
627.345	38.7067
630.237	49.6332
633.13	36.1196
636.023	29.2751
638.916	23.6471
641.808	38.0233
644.701	22.4916
647.594	10.7641
650.486	14.3444
653.379	23.1239
656.272	44.2783
659.164	13.4962
662.057	22.6991
664.95	19.9827
667.843	12.3358
670.735	16.3239
673.628	0.015503
676.521	24.0502
679.413	19.706
682.306	2.3092
685.199	7.23459
688.091	19.6676
690.984	21.2848
693.877	21.9173
696.77	3.08234
699.662	15.4069
702.555	5.89825
705.448	1.30926
708.34	20.0376
711.233	3.1e-05
714.126	4.98102
717.019	10.7277
719.911	18.0432
722.804	27.3326
725.697	22.8466
728.589	21.0084
731.482	27.1431
734.375	8.16449
737.267	12.7359
740.16	18.5873
743.053	19.3441
745.946	16.584
748.838	31.5094
751.731	4.7106
754.624	23.4108
757.516	18.0782
760.409	29.2454
763.302	2.28024
766.194	24.3544
769.087	19.9521
771.98	26.2507
774.872	38.8646
777.765	19.4448
780.658	29.7674
783.551	24.2734
786.443	13.8992
789.336	29.4185
792.229	21.5814
795.121	38.8848
798.014	17.9212
800.907	26.097
803.799	19.2564
806.692	9.55499
809.585	5.44882
812.477	13.436
815.37	6.74963
818.263	11.8129
821.156	3.82721
824.048	1.8204
826.941	10.153
829.834	25.449
832.726	3.46683
835.619	3.64941
838.512	15.0609
841.404	9.42191
844.297	17.9432
847.19	25.8699
850.083	8.23654
852.975	18.1339
855.868	13.5124
858.761	30.5573
861.653	14.6526
864.546	24.1742
867.439	22.19
870.332	26.6438
873.224	41.1071
876.117	6.24652
879.01	7.66211
881.902	25.3465
884.795	2.38922
887.688	30.1511
890.58	5.57031
893.473	2.4736
896.366	10.9441
899.259	9.25912
902.151	10.2491
905.044	34.901
907.937	14.5756
910.829	14.4901
913.722	37.1993
916.615	18.2963
919.507	30.405
922.4	21.3976
925.293	29.2791
928.186	15.682
931.078	29.5639
933.971	21.2544
936.864	33.9486
939.756	23.1621
942.649	10.7509
945.542	15.632
948.434	6.16101
951.327	19.8838
954.22	6.27283
957.112	25.6318
960.005	32.2745
962.898	2.69013
965.791	20.1933
968.683	38.9534
971.576	19.6198
974.469	29.6889
977.361	10.5005
980.254	14.4345
983.147	4.43466
986.039	16.3421
988.932	16.9669
991.825	27.9479
994.718	12.172
997.61	23.5438
1000.5	11.8456
1003.4	12.8212
1006.29	15.4093
1009.18	21.7681
1012.07	19.0422
1014.97	6.45438
1017.86	21.4777
1020.75	3.33872
1023.64	16.4559
1026.54	25.0537
1029.43	32.5388
1032.32	20.6244
1035.21	42.6942
1038.11	31.0525
1041	18.7134
1043.89	28.6083
1046.79	20.8178
1049.68	17.2891
1052.57	13.7129
1055.46	19.0779
1058.36	23.1992
1061.25	23.7914
1064.14	27.1703
1067.04	18.814
1069.93	24.7152
1072.82	6.67401
1075.71	21.511
1078.61	14.8453
1081.5	17.5267
1084.39	18.9326
1087.28	26.1161
1090.18	16.3938
1093.07	18.2949
1095.96	17.6318
1098.86	25.2228
1101.75	33.9005
1104.64	31.3334
1107.53	13.5289
1110.43	42.3445
1113.32	6.92127
1116.21	15.6339
1119.1	5.27594
1122	25.5749
1124.89	1.06506
1127.78	13.5791
1130.67	20.1788
1133.57	14.5814
1136.46	12.5564
1139.35	8.83115
1142.24	1.14099
1145.14	7.87842
1148.03	6.12872
1150.92	30.9027
1153.82	4.172
1156.71	14.832
1159.6	12.8123
1162.49	34.9484
1165.39	15.1394
1168.28	20.1734
1171.17	25.4947
1174.07	31.4986
1176.96	4.14621
1179.85	21.0085
1182.74	14.3344
1185.64	23.8851
1188.53	29.0116
1191.42	4.69659
1194.31	29.1704
1197.21	13.4807
1200.1	17.8558
1202.99	2.27347
1205.88	19.5159
1208.78	11.0581
1211.67	26.5301
1214.56	17.8042
1217.45	27.3095
1220.35	14.1647
1223.24	26.4095
1226.13	22.3546
1229.03	15.1699
1231.92	31.0729
1234.81	9.73605
1237.7	35.1503
1240.6	20.902
1243.49	6.55737
1246.38	7.36014
1249.28	49.1612
1252.17	5.59979
1255.06	12.8383
1257.95	18.2089
1260.85	28.8109
1263.74	25.8135
1266.63	11.3246
1269.52	36.5933
1272.42	25.2124
1275.31	9.07584
1278.2	7.24606
