Measurement: Raman, 532 nm, unoriented, Raman Data Processed
Mineral: Uranophane
Rruff sample: R070038
Ideal chemistry: Ca(U^6+^O_2_)_2_(SiO_3_OH)_2_5H_2_O
Locality: Kyzulsai Mo-U deposit, south Kazakhstan
Source: Michael Scott
Description: Lemon-yellow granular coating
Raman shift (cm-1)	intensity
173.806	0
176.699	4.83203
179.591	16.2344
182.484	67.207
185.377	325.227
188.269	414.035
191.162	340.062
194.055	524.273
196.947	431.223
199.84	561.219
202.733	566.449
205.626	698.738
208.518	496.586
211.411	456.68
214.304	592.414
217.196	637.633
220.089	724.356
222.982	630.09
225.875	657.106
228.767	654.922
231.66	687.266
234.553	461.402
237.445	679.035
240.338	608.047
243.231	583.812
246.123	465.793
249.016	504.957
251.909	497.555
254.801	520.492
257.694	428.203
260.587	341.231
263.479	424.5
266.372	426.863
269.265	282.062
272.158	423.957
275.05	330.922
277.943	302.523
280.836	265.902
283.728	333.66
286.621	127.496
289.514	238.219
292.406	299.359
295.299	181.098
298.192	47.6133
301.085	277.031
303.977	169.781
306.87	130.414
309.763	105.371
312.655	3.73828
315.548	33.8047
318.441	34.3633
321.334	49.4414
324.226	93.8828
327.119	169.164
330.012	47.1289
332.904	42.8203
335.797	142.836
338.69	68.207
341.582	8.16016
344.475	31.7383
347.368	111.496
350.26	108.023
353.153	70.8711
356.046	154.863
358.938	94.2812
361.831	64.6133
364.724	22.0156
367.617	4.96484
370.509	135.555
373.402	64.4414
376.295	27.0195
379.187	60.125
382.08	60.918
384.973	174.184
387.865	12.9492
390.758	98.8672
393.651	103.234
396.544	108.965
399.436	154.477
402.329	35.1797
405.222	68.0664
408.114	4.58203
411.007	78.6562
413.9	23.5273
416.793	199.598
419.685	210.117
422.578	40.4062
425.471	51.2227
428.363	145.992
431.256	162.266
434.149	103.574
437.041	105.094
439.934	142.828
442.827	116.688
445.719	53.8281
448.612	128.129
451.505	282.617
454.398	218.016
457.29	94.1758
460.183	35.9258
463.076	213.383
465.968	140.836
468.861	308.82
471.754	232.023
474.647	196.461
477.539	234.719
480.432	199.301
483.325	88.8242
486.217	66.4648
489.11	68.7305
492.003	40.3828
494.895	59.2773
497.788	126.477
500.681	178.031
503.573	147.984
506.466	156.969
509.359	168.465
512.251	195.856
515.144	143.488
518.037	102.328
520.93	233.723
523.822	58.5391
526.715	113.547
529.608	151.805
532.5	184.965
535.393	145.305
538.286	237.852
541.178	95.8867
544.071	193.188
546.964	62.9688
549.857	15.6055
552.749	28.0586
555.642	52.4375
558.535	168.973
561.427	327.918
564.32	138.062
567.213	39.1094
570.106	45.1172
572.998	75.9922
575.891	82.2227
578.784	96.9336
581.676	74.625
584.569	145.93
587.462	228.41
590.354	187.969
593.247	160.902
596.14	140.051
599.033	74.457
601.925	4.99609
604.818	95.457
607.711	46.9141
610.603	134.953
613.496	109.715
616.389	122.379
619.281	253.402
622.174	44.2734
625.067	162.695
627.959	307.793
630.852	272.375
633.745	205.062
636.638	281.887
639.53	250.769
642.423	284.172
645.316	223.438
648.208	173.367
651.101	329.031
653.994	290.457
656.886	372.504
659.779	186.129
662.672	264.883
665.564	206.066
668.457	344.356
671.35	279.496
674.243	222.711
677.135	244.481
680.028	154.394
682.921	333.879
685.813	188.805
688.706	218.891
691.599	170.703
694.491	27.5195
697.384	12.0352
700.277	308.606
703.17	79.5547
706.062	74.7305
708.955	235.375
711.848	84.8164
714.74	116.582
717.633	217.992
720.526	168.215
723.418	44.8984
726.311	80.5156
729.204	82.7734
732.096	262.332
734.989	118.797
737.882	120.543
740.775	76.6953
743.667	162.438
746.56	169.488
749.453	27.8086
752.345	248.961
755.238	161.188
758.131	100.641
761.024	196.922
763.916	152.859
766.809	178.836
769.702	173.367
772.594	195.992
775.487	24.1055
778.38	177.203
781.272	246.594
784.165	51.2188
787.058	129.883
789.951	326.559
792.843	177.766
795.736	29.4297
798.629	280.5
801.521	40.2148
804.414	209.723
807.307	176.457
810.199	223.285
813.092	239.91
815.985	171.394
818.877	181.129
821.77	206.402
824.663	243.555
827.556	87.1797
830.448	169.215
833.341	152.68
836.234	417.203
839.126	488.57
842.019	295.945
844.912	406.172
847.804	298.473
850.697	121.488
853.59	79.2188
856.482	44.2031
859.375	142.059
862.268	39.6367
865.161	46.0273
868.053	165.289
870.946	28.0625
873.839	40.0938
876.731	26.8555
879.624	74.9766
882.517	220.391
885.409	107.059
888.302	93.7852
891.195	103.148
894.088	77.7109
896.98	195.574
899.873	153.109
902.766	117.652
905.658	166.254
908.551	188.445
911.444	160.875
914.337	119.148
917.229	118.516
920.122	19.6758
923.015	119.219
925.907	74.8594
928.8	99.3828
931.693	11.5117
934.585	105.426
937.478	60.0117
940.371	47.4023
943.263	191.59
946.156	110.973
949.049	45.9922
951.942	142.344
954.834	62.9023
957.727	53.8594
960.62	52.5
963.512	95.5938
966.405	48.918
969.298	158.648
972.19	101.297
975.083	90.8789
977.976	168.144
980.869	134.102
983.761	98.5703
986.654	92.1914
989.547	129.117
992.439	180.059
995.332	160.031
998.225	265.902
1001.12	78.6797
1004.01	128.594
1006.9	185.32
1009.79	146.848
1012.69	111.117
1015.58	123.305
1018.47	165.527
1021.37	113.004
1024.26	84.5156
1027.15	233.496
1030.04	146.938
1032.94	37.8711
1035.83	98.1484
1038.72	114.012
1041.62	53.582
1044.51	51.4023
1047.4	387.914
1050.29	184.902
1053.19	35.0859
1056.08	85.293
1058.97	154.16
1061.86	108.664
1064.76	167.621
1067.65	91.6133
1070.54	198.641
1073.43	166.102
1076.33	89.2969
1079.22	88.1289
1082.11	24.6914
1085.01	112.398
1087.9	96.6367
1090.79	8.23047
1093.68	93.1367
1096.58	190.836
1099.47	184.504
1102.36	92.5469
1105.26	102.356
1108.15	117.203
1111.04	74.5312
1113.93	5.62109
1116.83	100.195
1119.72	70.9102
1122.61	99.0039
1125.5	134.582
1128.4	123.586
1131.29	91.1289
1134.18	190.211
1137.07	116.168
1139.97	151.047
1142.86	19.5273
1145.75	152.273
1148.64	276.019
1151.54	248.062
1154.43	266.07
1157.32	81.3242
1160.22	111.394
1163.11	156.356
1166	154.305
1168.89	112.273
1171.79	252.812
1174.68	111.824
1177.57	83.8438
1180.46	47.4375
1183.36	14.1914
1186.25	251.805
1189.14	231.777
1192.04	167.863
1194.93	195.766
1197.82	306.117
1200.71	19.1523
1203.61	126.406
1206.5	36.0078
1209.39	15.7383
1212.28	14.4453
1215.18	102.793
1218.07	45.0273
1220.96	203.586
1223.86	131.84
1226.75	135.867
1229.64	225.871
1232.53	211.758
1235.43	107.922
1238.32	98.3359
1241.21	38.0508
1244.1	133.773
1247	193.332
1249.89	97.7891
1252.78	165.703
1255.67	133.055
1258.57	69.457
1261.46	110.258
1264.35	85.9531
1267.25	194.121
1270.14	119.133
1273.03	189.453
1275.92	132.086
1278.82	222.023
1281.71	182.684
1284.6	150.938
1287.49	321.562
1290.39	186.023
1293.28	93.0469
1296.17	221.129
1299.07	124.008
1301.96	101.535
1304.85	140.387
1307.74	52.5117
1310.64	112.691
1313.53	115.469
