Measurement: Raman, 780 nm, unoriented, Raman Data Processed
Mineral: Uraninite
Rruff sample: R070747
Ideal chemistry: U^4+^O_2_
Locality: Topsham, Sagadahoc County, Maine, USA
Source: Michael Scott
Description: Elongated dodecahedral gray-black submetallic crystals
Raman shift (cm-1)	intensity
202.222	0
205.115	24.7689
208.008	1.75378
210.9	37.13
213.793	35.2743
216.686	50.5861
219.578	38.1091
222.471	21.9929
225.364	38.3057
228.257	20.2139
231.149	21.1331
234.042	41.1379
236.935	82.68
239.827	27.7584
242.72	57.6139
245.613	3.6626
248.506	6.92432
251.398	47.5706
254.291	29.8732
257.184	52.3734
260.076	5.29907
262.969	14.2106
265.862	34.8608
268.754	48.6429
271.647	46.3682
274.54	28.592
277.433	0.821777
280.325	56.3261
283.218	24.4136
286.111	41.7841
289.003	34.2921
291.896	28.2659
294.789	42.1596
297.681	5.07007
300.574	18.4841
303.467	26.9977
306.36	10.0005
309.252	42.0188
312.145	65.2744
315.038	27.9216
317.93	48.6013
320.823	15.7925
323.716	6.81506
326.608	70.3396
329.501	40.2997
332.394	27.6946
335.286	7.70081
338.179	7.20898
341.072	33.8671
343.965	36.8195
346.857	16.8554
349.75	9.80701
352.643	31.8323
355.535	35.4032
358.428	12.8209
361.321	5.43543
364.214	36.0851
367.106	46.3223
369.999	42.4288
372.892	14.6849
375.784	48.363
378.677	8.47278
381.57	1.48267
384.462	30.9059
387.355	10.0764
390.248	18.8474
393.14	13.5815
396.033	20.8596
398.926	18.296
401.819	51.3379
404.711	55.953
407.604	20.8592
410.497	55.6633
413.389	40.6578
416.282	52.5088
419.175	58.4556
422.067	68.2207
424.96	66.9916
427.853	78.3779
430.746	64.8519
433.638	92.4156
436.531	73.1935
439.424	70.8491
442.316	93.9638
445.209	119.678
448.102	99.8193
450.995	84.0702
453.887	102.868
456.78	103.854
459.673	89.4845
462.565	100.768
465.458	93.2615
468.351	101.838
471.243	21.2867
474.136	49.6958
477.029	52.8556
479.921	70.173
482.814	84.3756
485.707	83.8561
488.599	45.634
491.492	40.0525
494.385	34.1534
497.278	55.9227
500.17	3.60498
503.063	28.4515
505.956	14.8831
508.848	4.24731
511.741	0.275757
514.634	25.4902
517.527	13.2085
520.419	5.98767
523.312	12.8341
526.205	14.5703
529.097	7.11011
531.99	3.94531
534.883	44.1713
537.775	42.1858
540.668	4.58606
543.561	69.1744
546.454	54.0554
549.346	37.2151
552.239	54.3596
555.132	47.9851
558.024	37.5212
560.917	42.7742
563.81	36.4517
566.702	60.9233
569.595	59.0314
572.488	44.0925
575.381	39.8254
578.273	51.9623
581.166	87.2642
584.059	57.1582
586.951	49.7444
589.844	58.8669
592.737	48.6093
595.63	47.7827
598.522	29.4962
601.415	69.6773
604.308	54.9622
607.2	77.0498
610.093	47.1349
612.986	41.7316
615.878	73.7263
618.771	63.6942
621.664	83.8711
624.557	61.5862
627.449	68.7208
630.342	65.34
633.235	58.6698
636.127	37.1473
639.02	33.5917
641.913	67.07
644.805	62.9585
647.698	55.5418
650.591	17.8342
653.484	22.286
656.376	2.49097
659.269	27.8152
662.162	18.8716
665.054	52.5563
667.947	4.10352
670.84	16.2956
673.732	25.2415
676.625	10.8784
679.518	23.2357
682.41	10.5643
685.303	8.86511
688.196	31.9917
691.089	12.335
693.981	35.3928
696.874	16.24
699.767	9.67493
702.659	9.24707
705.552	24.4443
708.445	8.2467
711.337	12.5483
714.23	48.1912
717.123	27.9123
720.016	5.64587
722.908	8.5238
725.801	8.26941
728.694	15.5942
731.586	15.8938
734.479	14.396
737.372	31.8685
740.264	29.0696
743.157	54.1509
746.05	19.5162
748.943	18.4586
751.835	4.09912
754.728	41.3217
757.621	3.53992
760.513	5.64648
763.406	7.45923
766.299	21.8014
769.192	25.1544
772.084	21.667
774.977	36.4038
777.87	37.6681
780.762	42.2898
783.655	39.8452
786.548	44.1112
789.44	59.5182
792.333	49.1977
795.226	42.1984
798.119	16.6645
801.011	29.7457
803.904	35.6592
806.797	34.791
809.689	27.2804
812.582	26.3809
815.475	50.8712
818.367	42.3737
821.26	38.5542
824.153	35.598
827.045	29.9066
829.938	56.6122
832.831	3.44861
835.723	0.202393
838.616	13.231
841.509	23.0263
844.402	24.6962
847.294	3.01758
850.187	1.91223
853.08	11.4188
855.972	21.0896
858.865	25.0926
861.758	17.3283
864.65	31.1356
867.543	8.4386
870.436	15.7196
873.329	12.1947
876.221	29.3256
879.114	50.0092
882.007	32.2922
884.899	49.4316
887.792	49.0773
890.685	34.0642
893.577	17.0602
896.47	37.0279
899.363	48.7393
902.256	31.4707
905.148	46.1188
908.041	11.0923
910.934	49.105
913.826	2.94519
916.719	42.947
919.612	27.3534
922.505	30.3994
925.397	21.8253
928.29	14.6245
931.183	23.773
934.075	48.7709
936.968	33.824
939.861	15.1936
942.753	33.7849
945.646	24.1366
948.539	24.2039
951.432	2.57837
954.324	26.4477
957.217	13.5115
960.11	37.6632
963.002	30.8866
965.895	6.79102
968.788	8.51245
971.68	26.756
974.573	32.3169
977.466	30.1022
980.359	27.58
983.251	19.843
986.144	26.9474
989.037	18.8318
991.929	26.2172
994.822	4.65955
997.715	32.2004
1000.61	10.7903
1003.5	14.8602
1006.39	41.0033
1009.29	3.83337
1012.18	20.9636
1015.07	34.5299
1017.96	20.3861
1020.86	61.6268
1023.75	31.8339
1026.64	20.276
1029.53	60.8083
1032.43	9.38672
1035.32	3.82873
1038.21	39.8767
1041.11	16.2268
1044	27.1663
1046.89	0.826904
1049.78	33.0772
1052.68	31.0542
1055.57	15.776
1058.46	22.95
1061.35	55.3887
1064.25	24.3882
1067.14	33.7662
1070.03	24.9507
1072.92	40.4476
1075.82	19.8851
1078.71	33.0487
1081.6	0.281494
1084.5	17.2651
1087.39	19.4202
1090.28	43.3622
1093.17	42.8127
1096.07	16.9824
1098.96	9.13818
1101.85	25.6974
1104.74	0.271729
1107.64	11.0013
1110.53	2.99695
1113.42	22.5293
1116.32	8.89844
1119.21	33.0059
1122.1	18.2736
1124.99	16.3053
1127.89	10.7493
1130.78	13.8328
1133.67	36.9873
1136.56	21.7767
1139.46	38.9294
1142.35	9.14502
1145.24	23.1511
1148.13	28.8984
1151.03	19.1959
1153.92	29.9898
1156.81	20.1024
1159.71	16.4661
1162.6	51.4183
1165.49	43.3373
1168.38	20.6682
1171.28	34.0175
1174.17	1.1311
1177.06	46.3737
1179.95	20.4987
1182.85	13.2687
1185.74	18.6526
1188.63	47.1371
1191.53	35.8662
1194.42	38.6908
1197.31	28.4114
1200.2	49.6647
1203.1	37.4984
1205.99	32.4988
1208.88	23.1277
1211.78	41.1569
1214.67	44.3683
1217.56	22.8939
1220.45	42.21
1223.35	51.0997
1226.24	19.0126
1229.13	51.8148
1232.02	21.1575
1234.92	3.36096
1237.81	0.003906
