Measurement: Raman, 532 nm, unoriented, Raman Data Processed
Mineral: Ushkovite
Rruff sample: R060954
Ideal chemistry: MgFe^3+^_2_(P^5+^O_4_)_2_(OH)_2_8H_2_O
Locality: Linópolis, Minas Gerais, Brazil
Source: Bob Jenkins
Description: Radial aggregate of pale brownish yellow bladed crystals, associated with radial aggregate of pale green atencioite, dark green rockbridgeite, and lefontite R140074
Measured chemistry: Mg_1.03_Fe^3+^_2.08_(P_2.00_O_4_)_2_(OH)_2_·8H_2_O
Raman shift (cm-1)	intensity
229.517	0
232.41	86.1797
235.303	25.5742
238.195	119.934
241.088	125.832
243.981	154.312
246.873	399.316
249.766	450.242
252.659	389.316
255.551	397.406
258.444	640.152
261.337	838.945
264.229	1191.7
267.122	920.656
270.015	646.125
272.908	210.16
275.8	390.68
278.693	477.547
281.586	490.934
284.478	528.207
287.371	356.531
290.264	313.555
293.156	102.059
296.049	2.08594
298.942	67.2812
301.834	106.441
304.727	396.211
307.62	421.719
310.513	558.121
313.405	419.586
316.298	183.93
319.191	236.254
322.083	123.551
324.976	277.262
327.869	208.066
330.762	282.668
333.654	345.512
336.547	140.129
339.44	237.293
342.332	102.93
345.225	37.5664
348.118	53.1328
351.01	308.238
353.903	230.082
356.796	164.723
359.688	122.785
362.581	131.648
365.474	46.5898
368.366	13.2227
371.259	92.5
374.152	254.34
377.045	392.258
379.937	141.09
382.83	56.6094
385.723	211.844
388.615	323.367
391.508	527.418
394.401	335.578
397.293	240.172
400.186	158.41
403.079	280.144
405.972	256.367
408.864	256.488
411.757	462.547
414.65	373.387
417.542	528.883
420.435	519.547
423.328	395.289
426.221	102.106
429.113	255.574
432.006	94.4727
434.899	279.121
437.791	114.527
440.684	279.445
443.577	225.231
446.469	336.777
449.362	292.5
452.255	119.414
455.147	264.609
458.04	185.316
460.933	192.172
463.826	201.496
466.718	175.91
469.611	366.613
472.504	399.344
475.396	290.969
478.289	108.148
481.182	19.2227
484.074	252.555
486.967	563.504
489.86	192.684
492.752	22.832
495.645	126.809
498.538	60.0273
501.431	154.117
504.323	185.125
507.216	202.082
510.109	269.168
513.001	3.12109
515.894	242.5
518.787	458.074
521.679	386.625
524.572	575.894
527.465	520.133
530.358	244.434
533.25	203.664
536.143	176.481
539.036	48.4023
541.928	187.68
544.821	330.211
547.714	450.648
550.606	126.836
553.499	128.648
556.392	31.8125
559.284	158.133
562.177	134.32
565.07	203.312
567.963	223.531
570.855	469.938
573.748	271.844
576.641	204.719
579.533	20.9766
582.426	167.984
585.319	18.125
588.212	216.586
591.104	233.703
593.997	202.859
596.89	334.734
599.782	401.68
602.675	397.695
605.568	891.812
608.46	1042.65
611.353	1359.6
614.246	1298.73
617.139	1229.07
620.031	1761.9
622.924	1812.7
625.817	1649.73
628.709	1569.62
631.602	1169.67
634.495	1126.14
637.387	880.344
640.28	820.953
643.173	740.5
646.066	835.969
648.958	890.211
651.851	1053.99
654.744	898.547
657.636	850.523
660.529	655.656
663.422	298.562
666.314	505.453
669.207	567.156
672.1	647.125
674.992	288.727
677.885	183.117
680.778	258.734
683.67	510
686.563	519.617
689.456	464.086
692.349	730.594
695.241	688.992
698.134	611.43
701.027	318.32
703.919	248.336
706.812	240.852
709.705	81.0938
712.597	39.7109
715.49	41.7188
718.383	222.891
721.276	214.195
724.168	317.789
727.061	262.953
729.954	137.758
732.846	174.836
735.739	393.562
738.632	51.9375
741.524	14.4609
744.417	250.383
747.31	729
750.203	681.125
753.095	368.094
755.988	562.945
758.881	412.078
761.773	10.8203
764.666	266.406
767.559	224.016
770.452	716.961
773.344	715.75
776.237	634.781
779.13	526.914
782.022	871.633
784.915	852.734
787.808	960.719
790.7	1242.69
793.593	1485.47
796.486	1195.57
799.378	1522.81
802.271	1388.18
805.164	1593.01
808.057	1649.37
810.949	1776.66
813.842	2041.16
816.735	1916.13
819.627	1878.34
822.52	2033.38
825.413	2108.57
828.305	2276.22
831.198	2350.91
834.091	2052.77
836.984	1897.44
839.876	1876.35
842.769	1626.43
845.662	1402.73
848.554	846.633
851.447	385.25
854.34	20.5625
857.232	113
860.125	486.32
863.018	279.82
865.91	155.602
868.803	2.50781
871.696	102.68
874.589	1.30469
877.481	203.07
880.374	339.141
883.267	95.2734
886.159	419.516
889.052	464.852
891.945	463.477
894.837	961.195
897.73	1025.28
900.623	516.656
903.516	283.578
906.408	612.016
909.301	268.383
912.194	304.094
915.086	205.391
917.979	218.445
920.872	402.789
923.764	515.797
926.657	919.539
929.55	984.125
932.442	689.531
935.335	650.016
938.228	581.523
941.121	445.164
944.013	202.812
946.906	61.1172
949.799	179.352
952.691	93.9688
955.584	69.1562
958.477	284.32
961.37	177.875
964.262	382.961
967.155	318.93
970.048	99.3203
972.94	163.273
975.833	228.188
978.726	250.438
981.618	76.6719
984.511	169.461
987.404	0.914063
990.296	16.5625
993.189	34.375
996.082	175.992
998.975	231.617
1001.87	604.961
1004.76	543.633
1007.65	368.312
1010.54	89.4609
1013.44	345.461
1016.33	240.328
1019.22	178.898
1022.12	93.0938
1025.01	631.805
1027.9	525.258
1030.79	469.289
1033.69	370.289
1036.58	719.828
1039.47	860.031
1042.37	626.664
1045.26	217.008
1048.15	176.469
1051.04	340.617
1053.94	492.922
1056.83	848.516
1059.72	790.781
1062.61	320.445
1065.51	128.242
1068.4	252.023
1071.29	96.2188
1074.18	336.781
1077.08	99.6953
1079.97	8
1082.86	10.7422
1085.76	202.523
1088.65	388.195
1091.54	460.859
1094.43	844.719
1097.33	711.344
1100.22	831.273
1103.11	706.609
1106	769.008
1108.9	776.602
1111.79	446.828
1114.68	349.477
1117.58	139.695
1120.47	217.828
1123.36	48.6562
1126.25	187.258
1129.15	553.336
1132.04	761.297
1134.93	693.375
1137.82	523.367
1140.72	318.312
1143.61	412.57
1146.5	10.6406
1149.39	49.9609
1152.29	586.445
1155.18	660.312
1158.07	705.055
1160.97	342.828
1163.86	308.648
1166.75	68.3281
1169.64	264.047
1172.54	298.984
1175.43	503.078
1178.32	689.578
1181.21	689.625
1184.11	827.117
1187	605.195
1189.89	360.773
1192.79	128.766
1195.68	284.852
1198.57	72.6641
1201.46	125.062
1204.36	117.719
1207.25	428.289
1210.14	469.352
1213.03	489.5
1215.93	174.555
1218.82	74.3281
1221.71	57.8984
1224.61	157.531
1227.5	241.172
1230.39	462.227
1233.28	388.773
1236.18	773.078
1239.07	376.406
1241.96	595.492
1244.85	242.172
1247.75	737.219
1250.64	492.281
1253.53	352.461
