Measurement: Raman, 532 nm, unoriented, Raman Data Processed
Mineral: Vasilite
Rruff sample: R070716
Ideal chemistry: (Pd,Cu)_16_(S,Te)_7_
Locality: Mount Filipp, Kamchatka Oblast', Far-Eastern Region, Russia
Source: Michael Scott
Description: Black metallic bleb; mounted on microprobe plastic
Raman shift (cm-1)	intensity
142.787	0
145.679	83.6838
148.572	40.3206
151.465	67.6034
154.358	149.5
157.25	67.5519
160.143	30.2037
163.036	144.224
165.928	10.7499
168.821	17.0533
171.714	65.5537
174.607	102.071
177.499	67.058
180.392	36.0832
183.285	80.1815
186.177	138.796
189.07	50.4088
191.963	92.9005
194.855	81.7018
197.748	35.6328
200.641	67.2479
203.534	18.2602
206.426	24.3735
209.319	21.2623
212.212	12.596
215.104	18.1107
217.997	44.157
220.89	6.77283
223.782	31.7505
226.675	25.8028
229.568	6.23401
232.46	19.7763
235.353	48.3434
238.246	30.0364
241.138	10.9589
244.031	42.3039
246.924	21.803
249.817	7.95471
252.709	18.807
255.602	74.1824
258.495	73.8479
261.387	72.1284
264.28	61.0744
267.173	50.0996
270.066	43.4962
272.958	42.1122
275.851	70.8987
278.744	16.5906
281.636	45.7364
284.529	59.4597
287.422	39.599
290.314	61.2169
293.207	34.3657
296.1	0.708862
298.993	50.8218
301.885	24.6246
304.778	21.1104
307.671	43.2001
310.563	65.4048
313.456	44.6846
316.349	34.7566
319.241	49.2406
322.134	58.4635
325.027	23.1583
327.92	15.6526
330.812	41.3038
333.705	65.7007
336.598	29.7845
339.49	83.5963
342.383	27.965
345.276	43.6747
348.168	53.065
351.061	40.1598
353.954	33.7487
356.846	58.9341
359.739	18.2413
362.632	52.6255
365.525	31.0311
368.417	103.489
371.31	34.9306
374.203	30.6111
377.095	62.3206
379.988	30.9352
382.881	11.2521
385.774	1.12274
388.666	28.8033
391.559	3.80524
394.452	11.2546
397.344	54.7331
400.237	37.7894
403.13	35.0303
406.022	40.2366
408.915	17.2835
411.808	7.08801
414.7	39.7268
417.593	26.0362
420.486	40.9818
423.379	47.6402
426.271	10.4809
429.164	16.4695
432.057	8.02887
434.949	13.5585
437.842	58.5305
440.735	61.0212
443.627	38.2712
446.52	22.0807
449.413	19.1755
452.306	25.2361
455.198	52.1008
458.091	30.4702
460.984	35.9825
463.876	53.897
466.769	10.1067
469.662	36.5242
472.555	38.1214
475.447	17.9443
478.34	1.22613
481.233	54.6095
484.125	17.4365
487.018	53.503
489.911	60.6411
492.803	41.6457
495.696	19.548
498.589	70.3223
501.481	26.2324
504.374	61.9171
507.267	32.4589
510.16	32.4798
513.052	36.7265
515.945	33.0619
518.838	11.3254
521.73	39.5468
524.623	53.6993
527.516	5.51093
530.408	1.28162
533.301	11.9499
536.194	17.2335
539.087	32.6121
541.979	54.3709
544.872	26.8673
547.765	42.1718
550.657	45.2386
553.55	48.6328
556.443	36.1557
559.335	62.3376
562.228	30.3269
565.121	40.6862
568.014	45.2628
570.906	46.0409
573.799	30.4134
576.692	49.4668
579.584	10.9846
582.477	16.6925
585.37	57.5671
588.263	50.696
591.155	26.7928
594.048	31.2855
596.941	4.24661
599.833	49.6773
602.726	22.8265
605.619	13.9482
608.511	23.8661
611.404	8.56128
614.297	17.443
617.189	26.8374
620.082	15.0358
622.975	46.0566
625.868	12.661
628.76	9.77502
631.653	12.9812
634.546	11.4259
637.438	4.44128
640.331	11.0489
643.224	9.73242
646.116	32.2644
649.009	41.9144
651.902	21.2945
654.795	49.7816
657.687	4.15762
660.58	10.1708
663.473	33.998
666.365	11.8543
669.258	51.8081
672.151	33.4607
675.043	51.2878
677.936	35.7677
680.829	4.04153
683.721	14.3334
686.614	16.786
689.507	27.4959
692.4	34.7958
695.292	17.3201
698.185	17.9711
701.078	4.39584
703.97	48.7681
706.863	49.56
709.756	34.5127
712.649	22.7365
715.541	56.5085
718.434	45.245
721.327	61.3842
724.219	50.6818
727.112	32.8854
730.005	67.5729
732.897	68.8135
735.79	17.7052
738.683	54.4144
741.576	54.3714
744.468	57.9751
747.361	49.1273
750.254	42.7769
753.146	58.6358
756.039	80.1136
758.932	20.1828
761.824	14.1529
764.717	54.0939
767.61	48.2657
770.503	10.7464
773.395	44.0038
776.288	0.64679
779.181	15.7285
782.073	46.4248
784.966	10.6147
787.859	65.2264
790.751	26.6379
793.644	18.4883
796.537	15.927
799.429	24.3085
802.322	25.5332
805.215	25.8933
808.108	29.9765
811	33.8043
813.893	65.0971
816.786	31.0489
819.678	27.0599
822.571	28.0105
825.464	112.894
828.356	38.4114
831.249	7.71927
834.142	73.4982
837.034	29.7174
839.927	9.02011
842.82	25.1826
845.713	35.7519
848.605	7.43826
851.498	0.389191
854.391	40.699
857.283	26.5698
860.176	20.3412
863.069	38.6124
865.962	58.1009
868.854	47.3637
871.747	49.7144
874.64	2.04684
877.532	34.1255
880.425	93.7599
883.318	25.242
886.21	59.8765
889.103	10.2594
891.996	32.1021
894.889	2.64099
897.781	24.3935
900.674	26.4495
903.567	46.0785
906.459	54.1085
909.352	52.2325
912.245	37.6148
915.138	29.997
918.03	68.9012
920.923	7.95489
923.816	9.84912
926.708	26.3261
929.601	20.0822
932.494	57.1126
935.386	17.0851
938.279	24.7335
941.172	17.3155
944.064	9.84387
946.957	19.6825
949.85	18.2506
952.743	52.2487
955.635	44.3365
958.528	28.2013
961.421	45.0879
964.313	48.7824
967.206	8.39987
970.099	61.3164
972.991	7.54187
975.884	10.0139
978.777	0.360565
981.67	48.0437
984.562	42.2781
987.455	17.3502
990.348	37.1637
993.24	31.2063
996.133	10.9676
999.026	62.6452
1001.92	41.8128
1004.81	52.0702
1007.7	94.1009
1010.6	10.6543
1013.49	36.8285
1016.38	41.905
1019.27	24.3746
1022.17	31.9186
1025.06	14.2786
1027.95	70.795
1030.85	64.541
1033.74	73.4219
1036.63	68.527
1039.52	66.0693
1042.42	42.049
1045.31	62.1339
1048.2	82.0551
1051.09	41.3981
1053.99	59.2304
1056.88	11.83
1059.77	41.1407
1062.66	54.8826
1065.56	41.7066
1068.45	58.6314
1071.34	18.159
1074.24	2.47897
1077.13	61.2405
1080.02	50.4166
1082.91	69.2703
1085.81	9.2131
1088.7	21.7812
1091.59	35.6589
1094.48	49.7772
1097.38	17.8549
1100.27	25.326
1103.16	24.1778
1106.06	43.2306
1108.95	40.3031
1111.84	48.1925
1114.73	10.1937
1117.63	29.9146
1120.52	4.01669
1123.41	21.5791
1126.3	32.8534
1129.2	18.1609
1132.09	23.877
1134.98	51.6932
1137.88	42.6336
1140.77	28.2752
1143.66	23.7843
1146.55	12.6919
1149.45	17.9553
1152.34	33.4685
1155.23	35.7624
1158.12	2.74991
1161.02	24.4466
1163.91	4.73935
1166.8	15.5937
1169.69	0.69632
1172.59	30.2048
1175.48	24.8149
1178.37	9.98117
1181.27	18.4853
1184.16	22.5266
1187.05	36.7899
1189.94	28.5259
1192.84	57.5637
1195.73	45.2364
1198.62	43.3401
1201.52	50.2119
1204.41	24.5247
1207.3	53.3009
1210.19	27.2199
1213.09	46.4543
1215.98	22.6722
1218.87	42.7926
1221.76	47.5684
1224.66	54.9532
1227.55	10.5307
1230.44	12.0751
1233.33	34.4999
1236.23	30.1728
1239.12	18.0991
1242.01	54.528
1244.9	26.0264
1247.8	19.6553
1250.69	45.5979
1253.58	29.9352
1256.48	21.0611
1259.37	2.21011
1262.26	47.8866
1265.15	41.3744
1268.05	40.9207
1270.94	47.6759
1273.83	44.8593
1276.72	47.2891
1279.62	36.4299
1282.51	56.8035
1285.4	31.1503
1288.3	24.9737
1291.19	43.6585
1294.08	65.0888
1296.97	18.6434
