Measurement: Raman, 780 nm, unoriented, Raman Data Processed
Mineral: Vasilite
Rruff sample: R070716
Ideal chemistry: (Pd,Cu)_16_(S,Te)_7_
Locality: Mount Filipp, Kamchatka Oblast', Far-Eastern Region, Russia
Source: Michael Scott
Description: Black metallic bleb; mounted on microprobe plastic
Raman shift (cm-1)	intensity
145.558	0
148.45	6.0293
151.343	11.8965
154.236	37.757
157.129	16.9009
160.021	17.7152
162.914	32.2616
165.807	13.6351
168.699	14.1701
171.592	56.0759
174.485	56.5461
177.377	48.5821
180.27	38.1901
183.163	84.9391
186.055	35.0212
188.948	45.8955
191.841	67.87
194.734	39.8448
197.626	4.07385
200.519	21.5964
203.412	13.9617
206.304	12.8475
209.197	18.7451
212.09	8.39087
214.982	11.8306
217.875	36.8621
220.768	15.3643
223.661	45.0612
226.553	40.6287
229.446	20.3477
232.339	46.6029
235.231	11.0749
238.124	40.9491
241.017	62.5256
243.91	29.6115
246.802	41.2144
249.695	39.5018
252.588	26.056
255.48	31.6365
258.373	43.8642
261.266	45.1791
264.158	26.8225
267.051	44.1083
269.944	35.6272
272.837	20.9553
275.729	19.7359
278.622	26.3314
281.515	40.9774
284.407	39.8235
287.3	43.3775
290.193	56.1096
293.085	41.4188
295.978	23.9129
298.871	21.7706
301.764	14.5574
304.656	17.1665
307.549	23.9963
310.442	16.4033
313.334	36.1351
316.227	46.624
319.12	13.1639
322.012	19.138
324.905	18.6164
327.798	33.8507
330.69	9.44482
333.583	22.7826
336.476	33.5681
339.369	22.6753
342.261	27.184
345.154	34.6516
348.047	31.7268
350.939	25.8925
353.832	24.4523
356.725	19.6027
359.618	22.1934
362.51	29.6244
365.403	9.78995
368.296	14.814
371.188	26.0688
374.081	36.079
376.974	1.60944
379.866	4.75552
382.759	22.5125
385.652	34.024
388.545	18.5707
391.437	3.22131
394.33	16.9664
397.223	6.90027
400.115	4.81766
403.008	3.97
405.901	18.7691
408.793	22.9365
411.686	28.8461
414.579	19.736
417.471	4.6543
420.364	22.9885
423.257	20.0901
426.15	21.003
429.042	35.8313
431.935	17.4482
434.828	18.0312
437.72	9.04556
440.613	18.6257
443.506	28.7033
446.399	11.9848
449.291	22.22
452.184	17.0644
455.077	0.541016
457.969	26.2722
460.862	24.0042
463.755	17.0848
466.647	12.988
469.54	34.5056
472.433	9.61404
475.325	20.6165
478.218	25.1768
481.111	19.625
484.004	7.6351
486.896	2.94424
489.789	15.6435
492.682	25.9761
495.574	23.0467
498.467	12.4782
501.36	18.7421
504.252	28.4044
507.145	4.11783
510.038	25.351
512.931	30.2046
515.823	23.3981
518.716	9.21176
521.609	9.90076
524.501	1.18308
527.394	21.7152
530.287	13.3321
533.179	0.085114
536.072	11.8003
538.965	24.3015
541.858	26.9198
544.75	52.6528
547.643	52.474
550.536	83.0471
553.428	115.197
556.321	104.73
559.214	54.5355
562.106	28.9075
564.999	36.6322
567.892	18.8185
570.785	13.456
573.677	20.9855
576.57	9.10376
579.463	8.13907
582.355	8.07831
585.248	12.2218
588.141	4.80441
591.034	23.6616
593.926	17.4115
596.819	23.4549
599.712	8.56201
602.604	14.4425
605.497	7.14502
608.39	5.48203
611.282	17.7321
614.175	16.04
617.068	11.9827
619.961	18.1936
622.853	18.7664
625.746	24.1403
628.639	17.0652
631.531	14.4257
634.424	11.6019
637.317	10.01
640.209	11.141
643.102	22.0739
645.995	15.1125
648.888	23.8
651.78	12.0817
654.673	17.6644
657.566	29.8146
660.458	4.19196
663.351	32.7598
666.244	13.9648
669.136	11.3857
672.029	22.5663
674.922	9.28601
677.814	22.9782
680.707	16.2569
683.6	12.8524
686.493	9.41202
689.385	34.3347
692.278	20.857
695.171	28.2728
698.063	14.8131
700.956	23.3207
703.849	5.255
706.741	25.2051
709.634	24.0442
712.527	8.0621
715.42	17.6588
718.312	36.9071
721.205	5.37244
724.098	16.8245
726.99	3.23856
729.883	25.4907
732.776	26.2579
735.668	39.3167
738.561	15.7104
741.454	21.0112
744.347	20.3485
747.239	14.2215
750.132	17.8236
753.025	24.2889
755.917	18.9085
758.81	12.6776
761.703	12.8047
764.596	22.8904
767.488	9.11389
770.381	18.034
773.274	14.5444
776.166	5.70465
779.059	21.2649
781.952	27.3397
784.844	10.6552
787.737	29.6882
790.63	43.7412
793.523	7.67816
796.415	27.9125
799.308	4.19272
802.201	0.50177
805.093	19.9021
807.986	8.75619
810.879	18.4622
813.771	23.1779
816.664	6.32361
819.557	15.1444
822.449	9.2038
825.342	7.62164
828.235	14.3394
831.128	7.27911
834.02	22.4518
836.913	25.3107
839.806	4.94653
842.698	28.0904
845.591	29.6837
848.484	16.0128
851.376	11.4357
854.269	22.2512
857.162	3.67349
860.055	6.01755
862.947	34.0459
865.84	16.7599
868.733	3.60053
871.625	30.4126
874.518	9.75192
877.411	18.5521
880.303	32.1343
883.196	22.0973
886.089	12.9797
888.982	21.0735
891.874	8.16797
894.767	24.0856
897.66	23.7328
900.552	11.894
903.445	20.8843
906.338	14.369
909.231	23.1713
912.123	13.1987
915.016	13.1909
917.909	16.0748
920.801	5.8494
923.694	8.15399
926.587	4.12268
929.479	9.92407
932.372	16.1388
935.265	2.81622
938.158	7.08945
941.05	20.8942
943.943	23.1928
946.836	12.7276
949.728	20.5459
952.621	21.7035
955.514	2.61899
958.406	0.424072
961.299	8.2735
964.192	10.0902
967.085	13.6887
969.977	5.98816
972.87	12.9178
975.763	26.7098
978.655	22.5597
981.548	14.9653
984.441	12.1285
987.333	21.2716
990.226	10.9844
993.119	1.01163
996.011	10.859
998.904	0.126312
1001.8	17.9753
1004.69	4.78174
1007.58	13.5689
1010.48	18.3638
1013.37	2.07455
1016.26	3.00693
1019.15	10.0485
1022.05	7.36691
1024.94	14.7222
1027.83	20.4723
1030.72	24.0678
1033.62	11.1693
1036.51	6.41296
1039.4	30.3541
1042.3	34.3555
1045.19	22.2749
1048.08	13.3617
1050.97	3.18838
1053.87	17.0059
1056.76	28.2554
1059.65	18.3718
1062.54	15.5898
1065.44	11.0511
1068.33	2.18014
1071.22	8.55313
1074.11	5.66303
1077.01	13.1888
1079.9	17.8018
1082.79	13.7548
1085.68	10.3243
1088.58	4.3461
1091.47	16.6198
1094.36	14.4151
1097.26	22.1788
1100.15	22.3275
1103.04	14.519
1105.93	16.8615
1108.83	19.5569
1111.72	7.20612
1114.61	22.9789
1117.51	7.59674
1120.4	6.16754
1123.29	22.8118
1126.18	7.63672
1129.08	27.6064
1131.97	10.2407
1134.86	28.7855
1137.75	0.067993
1140.65	28.9564
1143.54	27.4742
1146.43	10.6994
1149.33	3.05737
1152.22	7.69025
1155.11	9.21668
1158	5.83777
1160.89	13.5584
1163.79	2.90402
1166.68	15.0111
1169.57	1.50497
1172.47	9.20502
1175.36	5.60828
1178.25	29.5542
1181.14	12.8069
1184.04	24.4106
1186.93	34.7031
1189.82	9.88602
1192.71	6.11276
1195.61	10.6719
1198.5	17.6223
1201.39	9.57269
1204.29	29.7494
1207.18	3.51035
1210.07	21.6668
1212.96	24.0319
1215.86	10.1005
1218.75	15.6381
1221.64	27.6501
1224.54	28.5949
1227.43	20.0778
1230.32	23.4493
1233.21	9.97037
1236.11	15.0575
1239	19.0209
1241.89	16.1007
1244.78	4.0954
1247.68	10.7326
1250.57	29.383
1253.46	33.581
1256.35	33.7472
1259.25	5.19028
1262.14	2.72232
1265.03	30.3594
1267.92	9.28812
1270.82	31.2979
1273.71	9.46201
1276.6	22.3265
1279.5	30.2776
1282.39	6.06366
