Measurement: Raman, 780 nm, unoriented, Raman Data Processed
Mineral: Vastmanlandite-(Ce)
Rruff sample: R110171
Ideal chemistry: Ce^3+^_3_CaMg_2_Al_2_Si_5_O_19_(OH)_2_F
Locality: Bastnas, Riddarhyttan, Sweden
Source: Bob Jenkins
Description: Pink transparent gemmy massive associated with cerite-(Ce) R060708
Raman shift (cm-1)	intensity
181.759	559.537
184.652	567.891
187.545	576.325
190.437	584.606
193.33	593.773
196.223	604.076
199.115	616.112
202.008	626.259
204.901	637.385
207.794	648.52
210.686	658.637
213.579	664.481
216.472	676.891
219.364	681.223
222.257	685.271
225.15	690.912
228.042	692.935
230.935	695.593
233.828	696.555
236.721	699.685
239.613	701.802
242.506	704.313
245.399	707.747
248.291	713.664
251.184	714.634
254.077	722.135
256.969	722.914
259.862	735.19
262.755	741.163
265.648	750.634
268.54	754.319
271.433	762.856
274.326	769.893
277.218	777.115
280.111	787.207
283.004	796.269
285.897	797.618
288.789	804.518
291.682	813.619
294.575	818.01
297.467	824.881
300.36	832.605
303.253	842.516
306.145	849.355
309.038	857.84
311.931	866.001
314.824	877.369
317.716	885.619
320.609	890.021
323.502	899.316
326.394	901.347
329.287	911.988
332.18	916.164
335.072	922.531
337.965	930.131
340.858	938.327
343.75	933.365
346.643	936.153
349.536	936.764
352.429	934.669
355.321	933.533
358.214	932.443
361.107	928.837
364	926.358
366.892	922.394
369.785	922.608
372.678	917.274
375.57	912.359
378.463	909.731
381.356	908.872
384.248	905.067
387.141	907.801
390.034	904.342
392.926	902.401
395.819	902.631
398.712	902.2
401.605	900.744
404.497	899.537
407.39	894.908
410.283	892.103
413.175	886.733
416.068	887.909
418.961	882.219
421.853	880.665
424.746	879.514
427.639	883.264
430.532	879.75
433.424	877.785
436.317	876.966
439.21	870.077
442.102	866.482
444.995	855.779
447.888	848.48
450.781	843.472
453.673	838.204
456.566	831.926
459.459	825.257
462.351	816.33
465.244	808.628
468.137	803.821
471.029	795.123
473.922	793.966
476.815	788.518
479.707	781.308
482.6	777.219
485.493	776.206
488.386	772.856
491.278	764.96
494.171	763.167
497.064	761.646
499.956	757.501
502.849	755.206
505.742	752.376
508.635	746.343
511.527	742.834
514.42	740.461
517.313	738.456
520.205	733.117
523.098	727.747
525.991	727.277
528.883	724.265
531.776	724.956
534.669	724.821
537.562	727.805
540.454	726.374
543.347	727.689
546.24	721.355
549.132	724.198
552.025	721.049
554.918	720.195
557.81	715.693
560.703	709.068
563.596	706.848
566.489	704.542
569.381	699.862
572.274	695.317
575.167	697.186
578.059	692.83
580.952	688.162
583.845	685.976
586.737	684
589.63	682.426
592.523	679.287
595.415	678.038
598.308	674.06
601.201	669.289
604.094	663.929
606.986	662.757
609.879	655.186
612.772	648.556
615.664	643.806
618.557	641.655
621.45	636.242
624.342	630.85
627.235	624.199
630.128	622.35
633.021	615.519
635.913	611.268
638.806	606.356
641.699	603.14
644.591	596.284
647.484	586.899
650.377	584.159
653.269	579.44
656.162	572.02
659.055	569.586
661.948	562.398
664.84	558.872
667.733	555.219
670.626	546.93
673.518	545.135
676.411	541.678
679.304	534.596
682.197	528.819
685.089	527.542
687.982	520.883
690.875	519.267
693.767	514.513
696.66	508.033
699.553	504.004
702.445	501.746
705.338	495.696
708.231	492.266
711.124	488.845
714.016	482.63
716.909	478.184
719.802	475.138
722.694	471.168
725.587	466.926
728.48	463.631
731.372	458.848
734.265	453.888
737.158	450.409
740.051	444.56
742.943	441.543
745.836	439.181
748.729	436.04
751.621	432.046
754.514	427.389
757.407	424.583
760.299	418.161
763.192	413.548
766.085	409.571
768.977	403.758
771.87	399.115
774.763	398.662
777.656	393.867
780.548	390.351
783.441	385.649
786.334	379.866
789.226	379.023
792.119	376.292
795.012	371.357
797.904	369.227
800.797	363.56
803.69	361.012
806.583	360.571
809.475	359.577
812.368	355.921
815.261	355.308
818.153	352.239
821.046	351.953
823.939	347.184
826.832	345.445
829.724	344.056
832.617	341.762
835.51	339.568
838.402	339.714
841.295	337.628
844.188	337.294
847.08	339.266
849.973	338.375
852.866	335.239
855.759	337.18
858.651	333.942
861.544	332.221
864.437	328.714
867.329	326.035
870.222	322.685
873.115	320.511
876.007	319.713
878.9	316.527
881.793	313.999
884.686	312.001
887.578	312.136
890.471	306.075
893.364	301.708
896.256	297.894
899.149	290.864
902.042	285.954
904.934	281.776
907.827	275.096
910.72	274.76
913.612	269.071
916.505	265.708
919.398	261.887
922.291	257.321
925.183	256.293
928.076	254.129
930.969	252.287
933.861	249.879
936.754	248.245
939.647	247.193
942.539	244.702
945.432	242.413
948.325	239.803
951.218	239.097
954.11	240.642
957.003	237.701
959.896	238.941
962.788	238.761
965.681	236.9
968.574	234.662
971.466	232.527
974.359	232.548
977.252	231.413
980.145	228.995
983.037	228.876
985.93	227.668
988.823	226.394
991.715	225.684
994.608	226.072
997.501	226.085
1000.39	226.256
1003.29	225.719
1006.18	224.985
1009.07	223.763
1011.96	224.43
1014.86	225.126
1017.75	226.986
1020.64	227.196
1023.53	226.838
1026.43	228.673
1029.32	226.7
1032.21	229.188
1035.11	230.64
1038	229.85
1040.89	233.376
1043.78	233.788
1046.68	232.01
1049.57	232.972
1052.46	235.872
1055.36	236.324
1058.25	240.124
1061.14	238.749
1064.03	239.838
1066.93	240.922
1069.82	241.66
1072.71	242.09
1075.6	242.237
1078.5	244.817
1081.39	245.926
1084.28	247.153
1087.17	249.958
1090.07	251.473
1092.96	254.477
1095.85	257.757
1098.74	258.596
1101.64	261.375
1104.53	264.154
1107.42	269.257
1110.32	271.274
1113.21	273.213
1116.1	275.302
1118.99	280.611
1121.89	284.821
1124.78	289.855
1127.67	295.422
1130.57	298.986
1133.46	302.511
1136.35	304.948
1139.24	308.768
1142.14	314.889
1145.03	319.764
1147.92	325.209
1150.81	329.569
1153.71	334.202
1156.6	337.253
1159.49	342.909
1162.38	348.278
1165.28	351.86
1168.17	357.884
1171.06	363.604
1173.96	370.077
1176.85	374.363
1179.74	380.236
1182.63	385.974
1185.53	389.12
1188.42	396.418
1191.31	403.26
1194.2	406.227
1197.1	411.852
1199.99	416.896
1202.88	424.114
1205.78	428.793
1208.67	432.767
1211.56	439.104
1214.45	447.954
1217.35	454.746
1220.24	458.258
1223.13	464.824
1226.02	474.55
1228.92	478.548
1231.81	482.983
1234.7	490.639
1237.6	496.994
1240.49	502.072
1243.38	506.696
1246.27	515.574
1249.17	519.438
1252.06	527.989
1254.95	532.553
1257.84	542.665
1260.74	546.166
1263.63	553.311
1266.52	561.249
1269.41	566.499
1272.31	572.958
1275.2	579.933
1278.09	587.957
1280.98	595.248
1283.88	605.113
