Measurement: Raman, 780 nm, unoriented, Raman Data Processed
Mineral: Veszelyite
Rruff sample: R150144
Ideal chemistry: Cu^2+^_3_PO_4_(OH)_3_2H_2_O
Locality: Hisaichi Mine, Nakagawa, Akita Prefecture, Japan
Source: Leor Goldberg
Description: A fragment of dark blue crystal
Raman shift (cm-1)	intensity
142.544	0
145.436	0.182707
148.329	0.809494
151.222	0.418459
154.114	1.46305
157.007	0.805887
159.9	0.502939
162.792	0.736643
165.685	0.103735
168.578	0.645277
171.471	1.14963
174.363	0.560261
177.256	0.439087
180.149	0.273256
183.041	0.663801
185.934	0.686348
188.827	0.472599
191.72	0.184181
194.612	0.502256
197.505	0.083284
200.398	0.260782
203.29	0.455452
206.183	0.76878
209.076	0.071489
211.969	0.719473
214.861	0.349674
217.754	0.430265
220.647	0.522551
223.539	0.415964
226.432	0.784666
229.325	1.21409
232.217	0.847079
235.11	1.23657
238.003	1.61216
240.895	1.7101
243.788	1.85837
246.681	1.87412
249.574	1.66582
252.466	1.65651
255.359	1.05698
258.252	0.88317
261.144	1.12923
264.037	1.55714
266.93	0.477326
269.822	0.431316
272.715	0.34508
275.608	0.184853
278.5	0.453829
281.393	0.55618
284.286	0.321129
287.179	0.203693
290.071	0.193666
292.964	0.308573
295.857	0.774446
298.75	0.055856
301.642	0.465869
304.535	0.009932
307.428	0.257492
310.32	0.641746
313.213	0.210538
316.106	0.34286
318.998	0.402496
321.891	0.353662
324.784	0.365269
327.676	0.24901
330.569	0.434644
333.462	0.172988
336.355	0.262206
339.247	0.399387
342.14	0.514263
345.033	0.340753
347.925	0.191098
350.818	0.472159
353.711	0.124324
356.603	0.337738
359.496	0.738975
362.389	0.339396
365.282	0.303226
368.174	0.579844
371.067	0.75144
373.96	0.748192
376.852	0.885176
379.745	0.864637
382.638	0.966434
385.531	1.01302
388.423	0.269917
391.316	0.631208
394.209	0.239063
397.101	0.525869
399.994	0.560807
402.887	0.352933
405.779	0.533393
408.672	0.111021
411.565	0.422895
414.457	0.566395
417.35	0.010085
420.243	0.166523
423.136	0.388007
426.028	0.129466
428.921	0.486462
431.814	0.230956
434.706	0.079568
437.599	0.119581
440.492	0.354011
443.385	0.20716
446.277	0.10362
449.17	0.322554
452.063	0.370255
454.955	0.052057
457.848	1.20987
460.741	1.4677
463.633	0.879965
466.526	1.15094
469.419	0.761308
472.312	1.027
475.204	1.20154
478.097	0.78905
480.99	1.0848
483.882	0.974475
486.775	1.15195
489.668	1.12092
492.56	0.782776
495.453	0.587983
498.346	0.968202
501.238	0.081712
504.131	0.211978
507.024	0.18091
509.917	0.224669
512.809	0.30152
515.702	0.470622
518.595	0.213773
521.487	0.376068
524.38	0.355689
527.273	0.287043
530.165	0.253467
533.058	0.140591
535.951	0.326559
538.844	0.415996
541.736	0.310866
544.629	0.284596
547.522	0.103749
550.414	0.119323
553.307	0.472546
556.2	0.535994
559.092	0.36039
561.985	0.194225
564.878	0.511252
567.771	0.146173
570.663	0.059132
573.556	0.020209
576.449	0.379997
579.341	0.15987
582.234	0.120607
585.127	0.39895
588.019	0.430747
590.912	0.367653
593.805	0.294923
596.698	0.52956
599.59	0.404904
602.483	0.594078
605.376	0.243443
608.268	0.397688
611.161	0.380509
614.054	0.098564
616.947	0.557915
619.839	0.605865
622.732	0.759491
625.625	0.548731
628.517	0.59716
631.41	0.623216
634.303	0.123414
637.195	0.569394
640.088	0.771687
642.981	0.489524
645.874	0.192236
648.766	0.415435
651.659	0.267764
654.552	0.378676
657.444	0.539442
660.337	0.684788
663.23	0.613777
666.122	0.512438
669.015	0.605299
671.908	0.527451
674.801	0.293965
677.693	0.014783
680.586	0.387615
683.479	0.281555
686.371	0.721375
689.264	0.245096
692.157	0.264095
695.049	0.164398
697.942	0.059733
700.835	0.002645
703.727	0.366476
706.62	0.159483
709.513	0.04471
712.406	0.40343
715.298	0.314204
718.191	0.221159
721.084	0.099931
723.976	0.208151
726.869	0.384374
729.762	0.703473
732.654	0.10384
735.547	0.131189
738.44	0.373925
741.333	0.367846
744.225	0.484528
747.118	0.132476
750.011	0.167888
752.903	0.038865
755.796	0.312302
758.689	0.083766
761.582	0.184381
764.474	0.2507
767.367	0.54146
770.26	0.589552
773.152	0.136597
776.045	0.052486
778.938	0.051103
781.83	0.470106
784.723	0.204882
787.616	0.149259
790.509	0.581356
793.401	0.202957
796.294	0.946182
799.187	0.471851
802.079	0.303015
804.972	0.273087
807.865	0.129642
810.757	0.132241
813.65	0.341238
816.543	0.320149
819.436	0.694241
822.328	0.492785
825.221	0.448418
828.114	0.630535
831.006	0.470151
833.899	0.693748
836.792	0.788703
839.684	0.91795
842.577	1.03129
845.47	0.845994
848.362	0.733603
851.255	0.974995
854.148	0.888766
857.041	0.706584
859.933	0.667017
862.826	1.02686
865.719	0.880905
868.611	0.385013
871.504	1.30556
874.397	0.645095
877.29	0.347626
880.182	0.521261
883.075	0.599274
885.968	0.378958
888.86	0.855039
891.753	0.128599
894.646	0.300408
897.538	0.3031
900.431	0.00631
903.324	0.212528
906.217	0.234765
909.109	0.260222
912.002	0.068131
914.895	0.28415
917.787	0.365498
920.68	0.400134
923.573	0.3563
926.466	0.038297
929.358	0.187592
932.251	0.076527
935.144	0.50537
938.036	0.439813
940.929	0.017704
943.822	0.303833
946.714	0.297879
949.607	0.168239
952.5	0.18417
955.393	0.235483
958.285	0.689304
961.178	1.2475
964.071	2.00554
966.963	1.94755
969.856	1.4887
972.749	0.485566
975.641	0.547827
978.534	0.190413
981.427	0.346189
984.319	0.061209
987.212	0.484185
990.105	0.481489
992.998	0.173798
995.89	0.118021
998.783	0.512677
1001.68	0.070561
1004.57	0.261747
1007.46	0.426602
1010.35	0.187959
1013.25	0.107341
1016.14	0.391351
1019.03	0.823207
1021.92	0.714428
1024.82	0.698263
1027.71	0.456455
1030.6	0.774357
1033.49	0.648661
1036.39	0.719206
1039.28	0.904354
1042.17	0.758687
1045.07	0.761373
1047.96	0.892981
1050.85	0.479734
1053.74	0.528408
1056.64	0.339751
1059.53	0.305589
1062.42	0.428303
1065.32	0.579655
1068.21	0.12207
1071.1	0.09048
1073.99	0.167271
1076.89	0.293708
1079.78	0.109616
1082.67	0.107735
1085.56	0.410232
1088.46	0.324185
1091.35	0.036991
1094.24	0.019008
1097.13	0.155015
1100.03	0.245932
1102.92	0.30808
1105.81	0.303425
1108.71	0.360602
1111.6	0.253544
1114.49	0.257933
1117.38	0.363022
1120.28	0.284698
1123.17	0.522171
1126.06	0.680982
1128.95	0.210873
1131.85	0.042278
1134.74	0.531074
1137.63	0.491162
1140.53	0.129345
1143.42	0.678003
1146.31	0.48798
1149.2	0.15295
1152.1	0.843584
1154.99	0.09865
1157.88	0.225832
1160.77	0.627922
1163.67	0.533541
1166.56	0.666285
1169.45	0.641308
1172.35	0.411812
1175.24	0.513255
1178.13	0.483219
1181.02	0.387871
1183.92	0.464594
1186.81	0.388803
1189.7	0.48388
1192.59	0.352912
1195.49	0.195666
1198.38	0.644796
1201.27	0.566113
1204.16	0.444832
1207.06	0.413404
1209.95	0.396152
1212.84	0.470215
1215.73	0.03053
1218.63	0.463561
1221.52	0.16956
1224.41	0.206676
1227.31	0.361309
1230.2	0.403241
1233.09	0.481334
1235.98	0.479911
1238.88	0.119672
1241.77	0.401912
1244.66	0.315373
1247.56	0.166793
1250.45	0.478921
1253.34	0.513813
1256.23	0.658192
1259.13	0.335276
1262.02	0.21025
1264.91	0.697192
1267.8	0.366506
1270.7	0.425509
1273.59	0.042972
1276.48	0.092098
1279.38	0.37176
1282.27	0
