Measurement: Raman, 780 nm, unoriented, Raman Data Processed
Mineral: Veszelyite
Rruff sample: R150143
Ideal chemistry: Cu^2+^_3_PO_4_(OH)_3_2H_2_O
Locality: Katanga, Democratic Republic of the Congo
Source: University of Arizona Mineral Museum
Description: Blue single crystals scattered in matrix
Raman shift (cm-1)	intensity
110.724	0
114.099	15.0475
117.473	10.2836
120.848	7.14252
124.223	6.24707
127.598	17.8185
130.972	19.0532
134.347	7.59824
137.722	29.9249
141.097	19.8869
144.472	16.5567
147.847	18.6858
151.221	15.1317
154.596	18.3097
157.971	0.131653
161.346	4.88681
164.721	3.24194
168.096	2.04526
171.47	3.06775
174.845	1.90265
178.22	8.89465
181.595	9.37839
184.97	17.9847
188.345	13.172
191.719	20.6284
195.094	20.9929
198.469	21.6769
201.844	28.3463
205.219	25.9545
208.593	25.957
211.968	23.9362
215.343	25.8251
218.718	23.9657
222.093	23.5554
225.468	21.8232
228.842	23.9873
232.217	24.5521
235.592	22.3616
238.967	25.2219
242.341	23.6548
245.716	25.0934
249.091	22.8501
252.466	14.731
255.841	14.0601
259.216	14.2412
262.591	11.8682
265.965	9.3656
269.34	7.3726
272.715	3.0491
276.09	5.07489
279.464	1.67882
282.839	3.02019
286.214	1.02823
289.589	1.73367
292.964	0.385284
296.339	0.75325
299.713	1.19342
303.088	3.58643
306.463	0.002151
309.838	0.752731
313.213	0.03717
316.587	2.08047
319.962	2.89908
323.337	0.707779
326.712	2.44556
330.087	1.28557
333.462	0.869522
336.837	1.50435
340.211	0.58754
343.586	1.43364
346.961	0.393906
350.336	1.74115
353.711	1.96864
357.085	0.410141
360.46	0.189987
363.835	3.39204
367.21	3.43726
370.585	1.9642
373.959	2.49364
377.334	1.63689
380.709	1.44539
384.084	2.23071
387.459	0.149918
390.834	0.976181
394.208	3.09102
397.583	2.63794
400.958	1.32742
404.333	0.793625
407.708	3.12596
411.082	2.85089
414.457	0.014114
417.832	1.33282
421.207	1.55901
424.582	2.19482
427.957	0.765991
431.331	2.0856
434.706	2.96489
438.081	2.10284
441.456	2.8376
444.831	2.21754
448.205	1.24412
451.58	2.13415
454.955	1.84981
458.33	3.49612
461.705	3.5201
465.079	4.24867
468.454	5.3367
471.829	4.52953
475.204	4.59294
478.579	4.64201
481.954	4.7255
485.328	3.93113
488.703	2.63467
492.078	4.13148
495.453	2.15056
498.828	3.27951
502.202	3.68231
505.577	3.64249
508.952	3.06286
512.327	1.59335
515.702	2.16621
519.077	2.08111
522.451	4.26956
525.826	2.44326
529.201	3.72629
532.576	1.14066
535.951	1.50905
539.326	1.6508
542.7	1.17576
546.075	0.260742
549.45	3.22931
552.825	1.50401
556.2	2.71702
559.574	0.273369
562.949	0.448914
566.324	1.1096
569.699	1.56339
573.074	0.183716
576.448	0.66433
579.823	1.18478
583.198	0.912971
586.573	0.96051
589.948	2.2422
593.323	1.00671
596.697	2.50271
600.072	0.002663
603.447	1.08315
606.822	1.82702
610.197	4.10054
613.572	2.11131
616.946	1.62651
620.321	3.92793
623.696	2.67242
627.071	4.86931
630.446	1.83803
633.82	1.67781
637.195	3.42001
640.57	2.00566
643.945	2.42046
647.32	0.978363
650.694	1.09483
654.069	2.21317
657.444	5.01222
660.819	1.74777
664.194	3.33628
667.569	4.0622
670.943	2.5836
674.318	1.24847
677.693	1.71443
681.068	2.04318
684.443	0.403221
687.817	1.69614
691.192	2.24792
694.567	2.07326
697.942	0.632454
701.317	1.91599
704.692	0.435944
708.066	2.71476
711.441	2.59811
714.816	2.76736
718.191	2.34283
721.566	1.08536
724.941	1.44943
728.315	2.79418
731.69	3.17095
735.065	0.84388
738.44	2.25565
741.815	2.57107
745.189	2.84955
748.564	3.00833
751.939	0.846352
755.314	2.2763
758.689	2.20392
762.063	0.923256
765.438	1.51116
768.813	0.250351
772.188	3.22102
775.563	1.20994
778.938	0.782997
782.312	1.13067
785.687	2.44844
789.062	0.290985
792.437	0.598755
795.812	3.5182
799.187	5.17724
802.561	1.49391
805.936	2.04387
809.311	3.32195
812.686	1.95891
816.061	1.68339
819.435	0.811882
822.81	0.719673
826.185	1.15513
829.56	1.99899
832.935	4.43337
836.309	1.86658
839.684	3.35333
843.059	3.69665
846.434	3.8101
849.809	1.8149
853.184	2.3241
856.558	0.78672
859.933	2.04162
863.308	0.334389
866.683	2.17624
870.058	1.81845
873.433	4.06389
876.807	1.39299
880.182	0.175865
883.557	0.218987
886.932	4.72216
890.307	2.78939
893.681	3.52593
897.056	2.11201
900.431	2.01048
903.806	2.9259
907.181	2.26942
910.556	0.65213
913.93	0.834122
917.305	4.22775
920.68	0.204178
924.055	3.17385
927.43	1.44201
930.804	1.91359
934.179	3.07616
937.554	3.03552
940.929	3.29547
944.304	1.24623
947.678	1.72223
951.053	2.75464
954.428	2.76707
957.803	4.04903
961.178	5.81551
964.553	5.70955
967.927	6.11998
971.302	3.20429
974.677	3.83534
978.052	2.17451
981.427	3.71104
984.802	1.83762
988.176	0.175011
991.551	2.93385
994.926	1.62328
998.301	0.009773
1001.68	0.015884
1005.05	2.93117
1008.42	2.21342
1011.8	1.73916
1015.17	1.64487
1018.55	0.372276
1021.92	1.33947
1025.3	0.597275
1028.67	2.20599
1032.05	1.02929
1035.42	1.81029
1038.8	2.66894
1042.17	4.20495
1045.55	1.40326
1048.92	2.66221
1052.3	3.57507
1055.67	1.54303
1059.05	2.05025
1062.42	0.459206
1065.8	1.71936
1069.17	1.73621
1072.55	0.986092
1075.92	0.644142
1079.3	0.370117
1082.67	3.31487
1086.05	0.097275
1089.42	3.45424
1092.8	0.516449
1096.17	1.1479
1099.55	3.67816
1102.92	1.9111
1106.3	1.98985
1109.67	2.22926
1113.05	0.418274
1116.42	1.31915
1119.79	0.591309
1123.17	0.02755
1126.54	3.00722
1129.92	2.29356
1133.29	1.33357
1136.67	1.13961
1140.04	0.028091
1143.42	2.07146
1146.79	1.24597
1150.17	1.91276
1153.54	1.83631
1156.92	1.47582
1160.29	0.72258
1163.67	0.805695
1167.04	2.61288
1170.42	0.989891
1173.79	1.50635
1177.17	3.06152
1180.54	1.19108
1183.92	2.6675
1187.29	1.89613
1190.66	3.13678
1194.04	2.00141
1197.41	2.32064
1200.79	0.58548
1204.16	3.8975
1207.54	2.42772
1210.91	3.91759
1214.29	5.08557
1217.66	2.94485
1221.04	2.09191
1224.41	0.681534
1227.79	2.43074
1231.16	4.14093
1234.54	1.73888
1237.91	1.55869
1241.29	1.99375
1244.66	2.70079
1248.04	3.46461
1251.41	0.669044
1254.79	3.27887
1258.16	2.74185
1261.54	2.89838
1264.91	0.876251
1268.29	3.42122
1271.66	0.135033
1275.04	1.78545
1278.41	1.29584
1281.79	0.169022
