Measurement: Raman, 785 nm, unoriented, Raman Data Processed
Mineral: Villiaumite
Rruff sample: R060916
Ideal chemistry: NaF
Locality: St. Hilaire, Quebec, Canada
Source: Royal Ontario Museum
Description: Reddish transparent single cleavage
Measured chemistry: Na_1.00_F_1.00_
Raman shift (cm-1)	intensity
148.044	0
150.936	499.563
153.829	572.316
156.722	85.3115
159.615	48.9863
162.507	346.697
165.4	853.746
168.293	1209.17
171.185	1151.36
174.078	985.383
176.971	800.52
179.863	640.741
182.756	610.037
185.649	691.269
188.542	697.03
191.434	699.521
194.327	716.411
197.22	750.579
200.112	725.424
203.005	692.717
205.898	643.483
208.791	546.724
211.683	420.61
214.576	499.06
217.469	517.551
220.361	490.484
223.254	480.81
226.147	379.252
229.04	342.174
231.932	258.101
234.825	275.121
237.718	275.495
240.61	371.373
243.503	301.838
246.396	194.561
249.288	130.949
252.181	169.685
255.074	115.692
257.966	176.29
260.859	183.416
263.752	188.791
266.645	91.3916
269.537	120.747
272.43	19.207
275.323	20.0527
278.215	52.8799
281.108	107.132
284.001	126.615
286.894	157.067
289.786	36.2783
292.679	8.2334
295.572	52.3467
298.464	48.7871
301.357	100.506
304.25	201.735
307.142	259.385
310.035	162.685
312.928	105.744
315.82	54.0254
318.713	8.33008
321.606	25.5283
324.499	130.164
327.391	216.537
330.284	222.935
333.177	193.029
336.069	174.912
338.962	9.2793
341.855	0.992188
344.748	86.2148
347.64	186.344
350.533	141.949
353.426	194.057
356.318	224.795
359.211	58.2871
362.104	18.582
364.996	34.7324
367.889	10.1602
370.782	126.113
373.675	240.037
376.567	180.08
379.46	206.731
382.353	49.1191
385.245	66.666
388.138	43.5527
391.031	60.5742
393.923	127.609
396.816	350.356
399.709	264.318
402.601	147.231
405.494	28.8125
408.387	14.0605
411.28	36.4062
414.172	142.795
417.065	290.316
419.958	278.406
422.85	249.609
425.743	207.762
428.636	86.6699
431.529	89.1699
434.421	74.2676
437.314	126.316
440.207	100.033
443.099	247.283
445.992	257.416
448.885	194.375
451.777	164.453
454.67	86.2598
457.563	81.9082
460.455	68.0898
463.348	104.602
466.241	25.8984
469.134	206.203
472.026	205.705
474.919	110.691
477.812	17.9785
480.704	36.8906
483.597	71.2578
486.49	148.719
489.382	275.065
492.275	228.049
495.168	218.949
498.061	56.9863
500.953	49.4922
503.846	46.6367
506.739	118.951
509.631	132.094
512.524	198.383
515.417	244.768
518.309	259.373
521.202	220.978
524.095	103.494
526.988	318.367
529.88	179.297
532.773	192.432
535.666	274.625
538.558	284.312
541.451	271.894
544.344	128.41
547.236	193.281
550.129	147.147
553.022	199.328
555.915	265.799
558.807	275.477
561.7	220.611
564.593	272.902
567.485	242.135
570.378	121.822
573.271	55.3828
576.163	79.0977
579.056	111.758
581.949	164.156
584.842	135.674
587.734	231.897
590.627	274.389
593.52	22.0566
596.413	48.1328
599.305	87.1543
602.198	189.691
605.091	137.6
607.983	216.275
610.876	155.166
613.769	12.0449
616.661	52.0312
619.554	48.8086
622.447	113.518
625.34	125.844
628.232	146.582
631.125	61.5234
634.018	106.393
636.91	61.0625
639.803	179.617
642.696	74.7383
645.588	60.6387
648.481	10.4004
651.374	32.8281
654.266	146.41
657.159	251.926
660.052	297.938
662.945	57.3633
665.837	1.71484
668.73	29.8594
671.623	109.66
674.515	137.699
677.408	181.863
680.301	205.359
683.193	49.3828
686.086	18.0977
688.979	47.9102
691.872	20.1133
694.764	132.461
697.657	300.879
700.55	183.309
703.442	175.281
706.335	153.316
709.228	61.6914
712.12	53.7227
715.013	149.211
717.906	200.383
720.799	222.684
723.691	281.981
726.584	37.5391
729.477	163.992
732.369	3.86719
735.262	124.039
738.155	166.144
741.048	343.879
743.94	186.062
746.833	265.824
749.726	293.109
752.618	365.316
755.511	192.262
758.404	170.246
761.296	107.711
764.189	208.402
767.082	223.727
769.975	254.57
772.867	168.512
775.76	163.394
778.653	64.2266
781.545	26.3867
784.438	156.141
787.331	241.203
790.223	404.977
793.116	282.012
796.009	159.637
798.902	87.2852
801.794	169.047
804.687	135.031
807.58	134.688
810.472	128.293
813.365	345.496
816.258	231.434
819.15	365.324
822.043	30.4531
824.936	30.8906
827.828	55.1562
830.721	201.992
833.614	143.961
836.507	264.434
839.399	93.9062
842.292	60.5625
845.185	218.445
848.077	79.7656
850.97	369.754
853.863	226.66
856.755	44.207
859.648	131.809
862.541	139.438
865.434	8.62109
868.326	101.102
871.219	0.96875
874.112	169.426
877.004	190.988
879.897	199.863
882.79	164.578
885.683	162.801
888.575	271.07
891.468	238.508
894.361	90.332
897.253	281.312
900.146	148.848
903.039	199.305
905.931	278.992
908.824	184.023
911.717	383.758
914.61	353.934
917.502	203.984
920.395	133.547
923.288	289.086
926.18	230.703
929.073	220.269
931.966	357.977
934.859	429.473
937.751	247.281
940.644	162.356
943.537	194.961
946.429	55.5
949.322	146.938
952.215	362.051
955.107	329.207
958	262.207
960.893	283.617
963.785	333.441
966.678	175.152
969.571	289.207
972.464	320.414
975.356	177.836
978.249	179.574
981.142	323.644
984.034	32.6797
986.927	21.9688
989.82	19.6445
992.712	91.2031
995.605	33.3594
998.498	103.758
1001.39	424.754
1004.28	279.203
1007.18	319.523
1010.07	252.656
1012.96	169.875
1015.85	257.586
1018.75	189.676
1021.64	156.156
1024.53	74.6133
1027.42	217.574
1030.32	189.215
1033.21	358.523
1036.1	191.113
1039	289.34
1041.89	256.531
1044.78	255.738
1047.67	294.254
1050.57	183.543
1053.46	176.09
1056.35	114.055
1059.24	203.254
1062.14	105.867
1065.03	8.45312
1067.92	161.434
1070.82	3.64453
1073.71	229.383
1076.6	368.066
1079.49	168.953
1082.39	99.5352
1085.28	24.5898
1088.17	36.1055
1091.06	76.0078
1093.96	317.906
1096.85	413.109
1099.74	113.637
1102.63	179.906
1105.53	68.1641
1108.42	47.6602
1111.31	325.09
1114.21	286.238
1117.1	205.062
1119.99	401.539
1122.88	273.457
1125.78	351.227
1128.67	321.512
1131.56	154.328
1134.45	239.477
1137.35	134.793
1140.24	254.938
1143.13	187.766
1146.03	82.1719
1148.92	138.008
1151.81	84.75
1154.7	110.75
1157.6	318.805
1160.49	159.094
1163.38	192.219
1166.28	219.367
1169.17	93.5078
1172.06	237.328
1174.95	51.6953
1177.85	149.898
1180.74	70.8828
1183.63	98.9062
1186.52	41.1328
1189.42	142.125
1192.31	48.7344
1195.2	272.688
1198.09	468.875
1200.99	456.258
1203.88	247.289
1206.77	162.531
1209.66	289.086
1212.56	323.492
1215.45	35.9688
1218.34	306.938
1221.24	277.82
1224.13	465.375
1227.02	398.43
1229.91	318.094
1232.81	343.18
1235.7	364.883
1238.59	344.609
1241.48	492.602
1244.38	317.5
1247.27	289.742
1250.16	290.117
1253.06	264.727
1255.95	62.875
1258.84	209.75
1261.73	177.375
1264.63	207.68
1267.52	29.9922
