Measurement: Raman, 532 nm, unoriented, Raman Data Processed
Mineral: Vlodavetsite
Rruff sample: R070736
Ideal chemistry: Ca_2_Al(S^6+^O_4_)_2_F_2_Cl4H_2_O
Locality: Tolbachik volcano, Kamchatka Oblast', Far-Eastern Region, Russia
Source: Michael Scott
Description: Colorless vitreous massive, rarely in irregular plates associated with calcite
Raman shift (cm-1)	intensity
159.661	0
162.554	141.643
165.446	47.2988
168.339	38.9551
171.232	71.6523
174.124	77.7832
177.017	126.781
179.91	117.59
182.803	464.029
185.695	132.357
188.588	207.541
191.481	297.705
194.373	281.264
197.266	291.41
200.159	151.637
203.051	196.639
205.944	399.971
208.837	254.252
211.729	206.168
214.622	124.394
217.515	88.3828
220.407	109.127
223.3	94.5
226.193	363.777
229.086	359.607
231.978	128.234
234.871	120.785
237.764	183.109
240.656	130.734
243.549	178.35
246.442	284.168
249.334	121.803
252.227	223.906
255.12	252.682
258.013	265.365
260.905	286.621
263.798	345.391
266.691	457.613
269.583	639.371
272.476	568.742
275.369	295.143
278.262	343.828
281.154	257.449
284.047	201.584
286.94	230.16
289.832	269.045
292.725	245.084
295.618	25.6895
298.51	10.877
301.403	148.691
304.296	210.059
307.188	226.781
310.081	178.406
312.974	179.168
315.867	151.574
318.759	13.043
321.652	274.793
324.545	232.953
327.437	214.293
330.33	510.633
333.223	496.156
336.115	397.438
339.008	223.82
341.901	295.727
344.794	106.988
347.686	139.129
350.579	115.137
353.472	272.125
356.364	290.922
359.257	138.223
362.15	86
365.043	131.859
367.935	9.73438
370.828	161.398
373.721	173.918
376.613	207.203
379.506	134.117
382.399	317.894
385.291	323.082
388.184	90.8867
391.077	207.566
393.969	63.875
396.862	19.6406
399.755	533.16
402.648	124.914
405.54	178.344
408.433	277.519
411.326	196.293
414.218	112.055
417.111	202.863
420.004	267.934
422.897	212.309
425.789	127.75
428.682	172.188
431.575	150.25
434.467	287.117
437.36	50.168
440.253	290.25
443.145	330.586
446.038	176.16
448.931	353.375
451.824	114.801
454.716	112.426
457.609	66.6875
460.502	53.332
463.394	104.492
466.287	50.168
469.18	158.422
472.072	248.496
474.965	127.035
477.858	118.129
480.75	44.0078
483.643	494.984
486.536	754.617
489.429	260.988
492.321	222.539
495.214	251.828
498.107	34.0391
500.999	190.481
503.892	349.164
506.785	61.0078
509.678	141.375
512.57	410.926
515.463	186.484
518.356	121.719
521.248	34.6836
524.141	93.2773
527.034	11.582
529.926	136.34
532.819	194.246
535.712	330.789
538.604	161.562
541.497	168.152
544.39	172.195
547.283	95.0352
550.175	30.1602
553.068	172.184
555.961	258.461
558.853	177.09
561.746	217.898
564.639	214.863
567.531	44.3516
570.424	169.902
573.317	176.742
576.21	81.7148
579.102	280.305
581.995	270.016
584.888	101.598
587.78	100.086
590.673	195.082
593.566	218.144
596.458	248.684
599.351	226.336
602.244	88.5664
605.136	18.6133
608.029	46.3008
610.922	141.34
613.815	112.75
616.707	101.324
619.6	168.754
622.493	278.531
625.385	107.016
628.278	115.981
631.171	27.6992
634.063	121.473
636.956	39.2422
639.849	171.098
642.742	148.742
645.634	149.133
648.527	48.5273
651.42	156.519
654.312	257.852
657.205	240.883
660.098	178.793
662.99	123.297
665.883	48.5742
668.776	218.594
671.669	166.699
674.561	1.94531
677.454	258.375
680.347	201.625
683.239	344.16
686.132	310.301
689.025	20.1562
691.918	157.836
694.81	184.699
697.703	92.0039
700.596	92.1289
703.488	123.219
706.381	371.348
709.274	306.102
712.166	273.809
715.059	341.586
717.952	363.234
720.845	235.965
723.737	159.684
726.63	272.039
729.523	137.805
732.415	339.633
735.308	63.0898
738.201	9.10547
741.093	56.7812
743.986	143.93
746.879	203.543
749.771	117.059
752.664	211.961
755.557	10.8711
758.45	57.3164
761.342	159.113
764.235	122.836
767.128	127.023
770.02	303.461
772.913	173.957
775.806	137.941
778.698	275.215
781.591	247.535
784.484	3.14844
787.377	173.086
790.269	215.473
793.162	196.938
796.055	205.121
798.947	218.438
801.84	236.633
804.733	128.152
807.625	184.117
810.518	171.559
813.411	231.359
816.304	102.277
819.196	216.715
822.089	154.629
824.982	249.832
827.874	109.731
830.767	215.41
833.66	23.375
836.552	195.984
839.445	191.328
842.338	243.109
845.231	221.234
848.123	238.094
851.016	365.902
853.909	436.004
856.801	520.039
859.694	329.457
862.587	353.5
865.479	237.418
868.372	156.609
871.265	79.6016
874.158	94.1641
877.05	101.238
879.943	339.477
882.836	126.07
885.728	413.902
888.621	268.043
891.514	87.625
894.406	240.984
897.299	306.691
900.192	318.543
903.085	141.805
905.977	165.106
908.87	217.457
911.763	285.973
914.655	275.148
917.548	251.164
920.441	390.211
923.333	352.047
926.226	302.641
929.119	162.16
932.011	143.906
934.904	186.434
937.797	254.676
940.69	272.961
943.582	137.961
946.475	217.199
949.368	318.25
952.26	357.266
955.153	374.723
958.046	232.328
960.938	300.352
963.831	16.2383
966.724	31.9922
969.617	245.797
972.509	225.215
975.402	137.539
978.295	100.66
981.187	152.754
984.08	79.3203
986.973	171.141
989.865	172.734
992.758	1.74609
995.651	6.78516
998.544	389.316
1001.44	508.734
1004.33	330.434
1007.22	312.144
1010.11	244.926
1013.01	171.242
1015.9	209.516
1018.79	359.477
1021.68	73.2383
1024.58	131.445
1027.47	212.508
1030.36	221.547
1033.26	438.938
1036.15	163.234
1039.04	155.273
1041.93	138.191
1044.83	31.4922
1047.72	27.0742
1050.61	19.6719
1053.51	16.7266
1056.4	21.4727
1059.29	48.5625
1062.18	72.5547
1065.08	156.273
1067.97	93.0039
1070.86	49.9766
1073.75	261.625
1076.65	231.801
1079.54	430.672
1082.43	471.168
1085.33	435.574
1088.22	188.199
1091.11	179.66
1094	174.043
1096.89	113.926
1099.79	271.066
1102.68	161.18
1105.57	120.176
1108.47	40.707
1111.36	202.773
1114.25	556.465
1117.14	313
1120.04	255.57
1122.93	50.332
1125.82	209.992
1128.71	296.016
1131.61	305.969
1134.5	452.672
1137.39	221.797
1140.29	151.91
1143.18	45.207
1146.07	45.6523
1148.96	228.031
1151.86	207.039
1154.75	152.856
1157.64	149.566
1160.54	24.8164
1163.43	46.3125
1166.32	38.3867
1169.21	45.918
1172.11	111.422
1175	163.769
1177.89	168.578
1180.78	25.9219
1183.68	136.883
1186.57	236.637
1189.46	232.332
1192.35	375.977
1195.25	185.207
1198.14	213.559
1201.03	255.824
1203.92	180.231
1206.82	757.953
1209.71	284.914
1212.6	245.906
1215.5	289.871
1218.39	273.277
1221.28	325.738
1224.17	85.168
1227.07	189.887
1229.96	80.8203
1232.85	41.5664
1235.74	182.152
1238.64	296.879
1241.53	220.309
1244.42	149.555
1247.32	278.988
1250.21	264.203
1253.1	332.699
1255.99	373.106
1258.89	171.047
1261.78	246.894
1264.67	84.793
1267.57	138.633
1270.46	157.906
1273.35	139.957
1276.24	74.2461
