Measurement: Raman, 780 nm, unoriented, Raman Data Processed
Mineral: Vlodavetsite
Rruff sample: R070736
Ideal chemistry: Ca_2_Al(S^6+^O_4_)_2_F_2_Cl4H_2_O
Locality: Tolbachik volcano, Kamchatka Oblast', Far-Eastern Region, Russia
Source: Michael Scott
Description: Colorless vitreous massive, rarely in irregular plates associated with calcite
Raman shift (cm-1)	intensity
172.074	0
174.967	90.4981
177.859	51.7637
180.752	37.625
183.645	42.1758
186.538	194.684
189.43	108.686
192.323	25.5273
195.216	123.857
198.108	138.211
201.001	22.1816
203.894	85.3711
206.786	103.438
209.679	67.043
212.572	83.4336
215.465	105.162
218.357	152.26
221.25	148.31
224.143	87.6269
227.035	20.043
229.928	92.0938
232.821	110.394
235.714	97.6543
238.606	88.875
241.499	89.5293
244.392	50.3965
247.284	97.2754
250.177	53.8203
253.07	65.2734
255.962	74.9297
258.855	143.897
261.748	271.818
264.64	258.166
267.533	312.629
270.426	276.584
273.319	456.254
276.211	408.627
279.104	471.465
281.997	372.086
284.889	330.768
287.782	321.242
290.675	201.598
293.567	232.379
296.46	308.947
299.353	427.252
302.246	352.541
305.138	493.656
308.031	411.822
310.924	442.258
313.816	328.68
316.709	445.756
319.602	429.412
322.495	385.434
325.387	310.875
328.28	225.43
331.173	192.6
334.065	72.3555
336.958	62.2617
339.851	219.9
342.743	95.8516
345.636	68.8652
348.529	35.252
351.421	0.421875
354.314	20.6641
357.207	35.8223
360.1	18.252
362.992	102.393
365.885	17.7539
368.778	42.3965
371.67	6.82812
374.563	20.5371
377.456	180.836
380.349	107.478
383.241	210.799
386.134	150.111
389.027	247.522
391.919	303.098
394.812	325.678
397.705	417.176
400.597	263.611
403.49	394.232
406.383	342.312
409.276	333.16
412.168	407.262
415.061	328.555
417.954	387.357
420.846	394.422
423.739	391.143
426.632	344.961
429.524	337.469
432.417	348.697
435.31	290.578
438.202	231.856
441.095	271.258
443.988	204.775
446.881	166.022
449.773	146.199
452.666	120.891
455.559	135.617
458.451	46.8633
461.344	114.191
464.237	119.207
467.13	128.293
470.022	34.9043
472.915	100.904
475.808	81.5078
478.7	13.1172
481.593	69.8125
484.486	34.5352
487.378	112.234
490.271	19.9531
493.164	54.3125
496.057	7.83398
498.949	53.1484
501.842	120.945
504.735	51.0371
507.627	26.2285
510.52	80.957
513.413	38.0488
516.305	31.6445
519.198	107.078
522.091	60.4961
524.984	34.041
527.876	113.82
530.769	158.406
533.662	34.5762
536.554	27.2461
539.447	114.084
542.34	278.326
545.232	112.578
548.125	61.9961
551.018	119.439
553.91	45.7793
556.803	37.4297
559.696	214.531
562.589	116.523
565.481	74.3047
568.374	66.3682
571.267	151.486
574.159	78.1641
577.052	66.5312
579.945	99.9394
582.837	25.248
585.73	53.4697
588.623	59.4199
591.516	11.6592
594.408	81.1816
597.301	128.134
600.194	70.5078
603.086	62.5791
605.979	112.997
608.872	145.81
611.764	130.078
614.657	141.913
617.55	112.484
620.443	176.312
623.335	12.7666
626.228	63.2529
629.121	103.212
632.013	50.8594
634.906	109.339
637.799	144.571
640.692	11.8467
643.584	178.622
646.477	113.483
649.37	20.4189
652.262	5.05469
655.155	87.9961
658.048	119.807
660.94	23.1523
663.833	30.8867
666.726	121.024
669.619	10.1973
672.511	68.7559
675.404	102.501
678.297	134.898
681.189	49.9805
684.082	59.2041
686.975	8.74121
689.867	71.4346
692.76	14.0508
695.653	27.6895
698.545	132.719
701.438	93.5332
704.331	99.2178
707.224	218.122
710.116	271.624
713.009	186.907
715.902	192.671
718.794	165.698
721.687	79.582
724.58	96.6484
727.472	64.1055
730.365	168.89
733.258	110.344
736.151	76.1797
739.043	100.659
741.936	129.024
744.829	201.553
747.721	159.348
750.614	181.122
753.507	84.8018
756.399	56.8379
759.292	25.9814
762.185	101.705
765.078	147.267
767.97	70.3603
770.863	73.4316
773.756	31.5322
776.648	67.3223
779.541	69.6562
782.434	116.47
785.327	31.3428
788.219	110.157
791.112	39.7588
794.005	59.2129
796.897	32.29
799.79	13.2158
802.683	29.8828
805.575	50.9531
808.468	85.6875
811.361	9.41504
814.254	61.3154
817.146	124.812
820.039	36.169
822.932	102.433
825.824	142.028
828.717	85.8711
831.61	130.123
834.502	42.9639
837.395	100.194
840.288	187.361
843.181	150.323
846.073	206.417
848.966	154.639
851.859	227.724
854.751	197.372
857.644	146.128
860.537	146.962
863.429	116.728
866.322	127.824
869.215	66.166
872.107	108.809
875	37.0488
877.893	109.041
880.786	71.4463
883.678	28.4365
886.571	60.4287
889.464	107.455
892.356	73.084
895.249	83.5713
898.142	87.375
901.034	40.4932
903.927	139.868
906.82	42.667
909.713	24.4941
912.605	2.54004
915.498	17.3184
918.391	35.0557
921.283	54.6533
924.176	76.4082
927.069	208.529
929.962	124.534
932.854	97.1328
935.747	76.7158
938.64	102.838
941.532	66.3193
944.425	137.964
947.318	125.781
950.21	106.434
953.103	99.5225
955.996	136.279
958.889	150.906
961.781	92.1055
964.674	60.1406
967.567	50.6338
970.459	100.724
973.352	15.5801
976.245	45.0898
979.137	8.74707
982.03	34.3291
984.923	4.10059
987.816	34.1133
990.708	43.7676
993.601	24.0742
996.494	12.6494
999.386	150.491
1002.28	143.009
1005.17	153.863
1008.06	102.133
1010.96	132.357
1013.85	137.769
1016.74	122.674
1019.63	119.41
1022.53	90.6269
1025.42	196.332
1028.31	200.878
1031.21	126.745
1034.1	121.888
1036.99	187.643
1039.88	130.059
1042.78	135.49
1045.67	174.918
1048.56	199.897
1051.45	186.605
1054.35	250.791
1057.24	200.69
1060.13	221.21
1063.03	164.117
1065.92	208.587
1068.81	206.014
1071.7	217.717
1074.6	174.365
1077.49	341.413
1080.38	369.218
1083.28	421.019
1086.17	630.528
1089.06	345.019
1091.95	203.912
1094.85	42.0703
1097.74	106.807
1100.63	77.7363
1103.52	86.3613
1106.42	29.6035
1109.31	3.25098
1112.2	6.73047
1115.09	42.2344
1117.99	46.7324
1120.88	115.039
1123.77	165.654
1126.66	193.068
1129.56	183.497
1132.45	147.942
1135.34	236.095
1138.24	281.779
1141.13	375.253
1144.02	257.308
1146.91	348.652
1149.81	398.38
1152.7	423.619
1155.59	378.824
1158.48	467.885
1161.38	435.905
1164.27	370.906
1167.16	445.53
1170.06	324.85
1172.95	359.894
1175.84	351.475
1178.73	347.969
1181.63	247.709
1184.52	188.995
1187.41	254.593
1190.3	205.141
1193.2	124.605
1196.09	152.933
1198.98	154.94
1201.88	22.8545
1204.77	40.666
1207.66	66.6797
1210.55	72.5332
1213.45	65.2344
1216.34	12.4443
1219.23	33.7842
1222.12	70.2549
1225.02	87.7881
1227.91	68.3193
1230.8	24.9014
1233.69	45.6045
1236.59	42.6523
1239.48	14.6611
1242.37	81.5029
1245.27	124.86
1248.16	41.3613
1251.05	19.3262
