Measurement: Raman, 780 nm, unoriented, Raman Data Processed
Mineral: Vonsenite
Rruff sample: R050477
Ideal chemistry: Fe^2+^_2_Fe^3+^O_2_(BO_3_)
Locality: North Hill, Riverside, California, USA
Source: California Institute of Technology
Description: Aggregate of black granules
Measured chemistry: (Fe^2+^_0.63_Mg_0.37_)_2_Fe^3+^_1.00_BO_5_
Raman shift (cm-1)	intensity
140.549	0
143.441	0.660004
146.334	0.338554
149.227	0.044479
152.119	1.12967
155.012	0.759705
157.905	1.03764
160.798	1.21656
163.69	0.110831
166.583	0.0883789
169.476	0.274367
172.368	1.70338
175.261	1.63005
178.154	1.5957
181.046	1.20762
183.939	0.964706
186.832	1.01216
189.725	0.751122
192.617	0.186394
195.51	0.449576
198.403	0.299057
201.295	0.730549
204.188	0.290028
207.081	0.698856
209.973	1.81199
212.866	1.74324
215.759	2.22547
218.651	1.89651
221.544	3.10907
224.437	3.01457
227.33	4.33122
230.222	3.27369
233.115	2.73364
236.008	3.29349
238.9	2.79802
241.793	3.37709
244.686	1.91596
247.578	2.86246
250.471	1.44587
253.364	1.33493
256.257	0.559231
259.149	1.15057
262.042	0.326641
264.935	0.257397
267.827	0.143635
270.72	1.08345
273.613	0.675186
276.506	0.771793
279.398	0.362339
282.291	0.475012
285.184	0.066345
288.076	0.239624
290.969	1.16125
293.862	0.566319
296.755	0.425182
299.647	0.889164
302.54	0.293789
305.433	0.38673
308.325	0.380787
311.218	0.21907
314.111	0.844746
317.003	0.117725
319.896	0.490334
322.789	0.353348
325.682	1.09465
328.574	0.000259
331.467	0.111286
334.36	0.177147
337.252	0.576469
340.145	0.450626
343.038	0.131748
345.93	0.207066
348.823	0.839737
351.716	0.93428
354.608	0.540939
357.501	1.19206
360.394	1.16951
363.287	1.20004
366.179	1.43255
369.072	1.31603
371.965	1.60502
374.857	1.91493
377.75	2.13191
380.643	1.94864
383.536	2.01113
386.428	1.72208
389.321	1.77094
392.214	1.5455
395.106	1.2932
397.999	1.51248
400.892	1.05726
403.784	0.975267
406.677	0.924267
409.57	1.16809
412.462	0.890586
415.355	0.675247
418.248	0.840538
421.141	0.919102
424.033	0.894695
426.926	0.130833
429.819	0.4627
432.712	0.192501
435.604	1.00294
438.497	0.546093
441.39	0.301655
444.282	0.466522
447.175	0.858459
450.068	1.29525
452.96	0.59721
455.853	0.712101
458.746	0.518929
461.639	0.515545
464.531	0.956947
467.424	1.06924
470.317	0.50539
473.209	0.912849
476.102	0.684273
478.995	0.868835
481.887	1.29557
484.78	0.703659
487.673	0.342136
490.565	0.654772
493.458	0.158297
496.351	0.481344
499.244	0.096136
502.136	0.333632
505.029	0.711805
507.922	0.564531
510.814	1.04756
513.707	0.40959
516.6	0.428114
519.492	0.663528
522.385	0.506765
525.278	0.218569
528.171	0.301687
531.063	0.437817
533.956	0.056347
536.849	0.074425
539.741	0.340197
542.634	0.116643
545.527	0.413669
548.42	0.41946
551.312	0.443483
554.205	0.061424
557.098	0.633532
559.99	0.111328
562.883	0.028767
565.776	0.057922
568.668	0.223778
571.561	1.2138
574.454	0.698145
577.347	0.23637
580.239	0.348404
583.132	0.547827
586.025	0.800684
588.917	0.08732
591.81	0.388929
594.703	0.488304
597.596	0.194233
600.488	0.295734
603.381	0.479891
606.274	0.369604
609.166	0.461472
612.059	0.547594
614.952	0.633091
617.844	1.1606
620.737	0.819874
623.63	1.07868
626.523	0.628294
629.415	0.882875
632.308	1.08517
635.201	0.965796
638.093	0.949673
640.986	1.07191
643.879	1.26506
646.771	1.0276
649.664	0.841557
652.557	1.03534
655.449	0.96859
658.342	0.643229
661.235	0.754673
664.128	0.514215
667.02	0.528666
669.913	0.562462
672.806	0.708063
675.698	0.531462
678.591	0.288561
681.484	0.179016
684.376	0.225243
687.269	0.663811
690.162	0.166899
693.055	0.15436
695.947	0.635565
698.84	0.184048
701.733	0.035162
704.625	0.438343
707.518	0.250269
710.411	0.768209
713.303	0.09984
716.196	0.224199
719.089	0.682518
721.982	0.208462
724.874	0.148247
727.767	0.609005
730.66	0.395454
733.552	0.167866
736.445	0.274273
739.338	0.312817
742.231	0.251404
745.123	0.165531
748.016	0.796337
750.909	0.800604
753.801	0.416794
756.694	0.332884
759.587	0.086586
762.48	0.092127
765.372	0.513039
768.265	0.083239
771.158	0.542883
774.05	0.34042
776.943	0.372799
779.836	0.009937
782.728	0.973988
785.621	0.8388
788.514	0.862743
791.407	1.16026
794.299	0.782368
797.192	0.529888
800.085	0.308561
802.977	1.00481
805.87	0.687605
808.763	0.920494
811.655	0.977781
814.548	1.05709
817.441	1.0625
820.333	1.18953
823.226	1.52087
826.119	1.12536
829.012	1.66532
831.904	0.975519
834.797	1.0794
837.69	1.34854
840.582	1.26485
843.475	1.60684
846.368	0.839005
849.261	1.0151
852.153	2.10959
855.046	1.99517
857.939	1.61423
860.831	1.67196
863.724	1.53879
866.617	0.735399
869.51	1.92962
872.402	1.45132
875.295	1.08356
878.188	1.25182
881.08	1.14833
883.973	0.508905
886.866	1.63172
889.758	0.944466
892.651	0.479546
895.544	0.748959
898.437	0.585176
901.329	0.525677
904.222	0.318579
907.115	0.247879
910.007	0.165222
912.9	0.171501
915.793	0.105556
918.685	0.366621
921.578	0.142139
924.471	0.012949
927.364	0.041466
930.256	0.105795
933.149	0.187298
936.042	0.421333
938.934	0.091417
941.827	0.477797
944.72	0.003778
947.612	0.66783
950.505	0.723509
953.398	0.305956
956.29	0.094876
959.183	0.483131
962.076	0.547496
964.969	0.286098
967.861	0.007276
970.754	0.69043
973.647	0.690148
976.539	0.037325
979.432	0.076328
982.325	0.800949
985.217	0.704535
988.11	0.277763
991.003	1.20052
993.896	0.141334
996.788	0.265761
999.681	0.360733
1002.57	0.753101
1005.47	0.492224
1008.36	0.034918
1011.25	0.695618
1014.14	0.704369
1017.04	0.72166
1019.93	0.464211
1022.82	0.204027
1025.71	0.438245
1028.61	0.315466
1031.5	0.675434
1034.39	0.455049
1037.29	0.620893
1040.18	0.453634
1043.07	0.092715
1045.96	0.631533
1048.86	0.555193
1051.75	0.723543
1054.64	0.863327
1057.54	0.495326
1060.43	0.941256
1063.32	0.778234
1066.21	0.029128
1069.11	0.150355
1072	0.724088
1074.89	0.48685
1077.78	0.368226
1080.68	0.133743
1083.57	0.408535
1086.46	0.233614
1089.36	0.065777
1092.25	0.762643
1095.14	0.606719
1098.03	0.646618
1100.93	0.635446
1103.82	0.577024
1106.71	0.084259
1109.6	0.018856
1112.5	0.269572
1115.39	0.318976
1118.28	0.166054
1121.17	0.440825
1124.07	0.104755
1126.96	0.071602
1129.85	0.307773
1132.74	0.232059
1135.64	0.50938
1138.53	0.193848
1141.42	0.280683
1144.32	0.417617
1147.21	0.054698
1150.1	0.148603
1152.99	0.346175
1155.89	0.250632
1158.78	0.313999
1161.67	1.3055
1164.57	0.557409
1167.46	0.903178
1170.35	0.403144
1173.24	0.408555
1176.14	0.034567
1179.03	0.685967
1181.92	0.803885
1184.81	0.761727
1187.71	0.369521
1190.6	0.623324
1193.49	0.929535
1196.38	0.694819
1199.28	0.91748
1202.17	0.729807
1205.06	0.956835
1207.96	0.598417
1210.85	0.823322
1213.74	0.719646
1216.63	1.06899
1219.53	0.879828
1222.42	0.086728
1225.31	0.386181
1228.2	0.423097
1231.1	0.66818
1233.99	0.434807
1236.88	0.374621
1239.78	1.00941
1242.67	0.992081
1245.56	0.627392
1248.45	0.52495
1251.35	1.13115
1254.24	0.695292
1257.13	0.831138
1260.02	0.508605
1262.92	0.700007
1265.81	1.25288
1268.7	0.878985
1271.6	1.04721
1274.49	0.771433
1277.38	0.634233
1280.27	0.350948
1283.17	0.22758
1286.06	0.122429
