Measurement: Raman, 532 nm, unoriented, Raman Data Processed
Mineral: Walstromite
Rruff sample: R070634
Ideal chemistry: BaCa_2_Si_3_O_9_
Locality: Esquire number 8 mine, Big Creek, Fresno County, California, USA
Source: Michael Scott
Description: Colorless massive with pronounced cleavage, strong orange-pink fluorescence under long-wave ultraviolet light
Measured chemistry: (Ba_0.96_Sr_0.02_Ca_0.02_)_Σ=1_(Ca_1.98_Mn_0.02_)_Σ=2_Si_3.00_O_9_; trace amounts of Ti
Raman shift (cm-1)	intensity
155.804	0
158.697	108.279
161.589	104.329
164.482	41.2119
167.375	25.9463
170.267	14.2315
173.16	164.145
176.053	125.478
178.946	190.927
181.838	163.332
184.731	124.799
187.624	120.502
190.516	205.929
193.409	183.712
196.302	43.1372
199.194	65.3237
202.087	80.2773
204.98	136.806
207.873	112.499
210.765	50.6641
213.658	146.944
216.551	107.14
219.443	68.7607
222.336	50.6826
225.229	8.04395
228.121	124.989
231.014	120.181
233.907	105.82
236.799	43.0713
239.692	89.103
242.585	11.7793
245.478	27.3023
248.37	44.146
251.263	89.6187
254.156	38.1641
257.048	145.601
259.941	41.9141
262.834	191.499
265.726	217.322
268.619	163.625
271.512	159.597
274.405	169.629
277.297	100.597
280.19	189.102
283.083	59.6265
285.975	122.475
288.868	215.763
291.761	257.833
294.654	146.049
297.546	120.692
300.439	24.1299
303.332	33.8691
306.224	64.7402
309.117	19.916
312.01	33.4766
314.902	54.331
317.795	64.6328
320.688	53.7148
323.58	50.7949
326.473	31.4053
329.366	2.49219
332.259	63.1055
335.151	146.33
338.044	139.67
340.937	193.661
343.829	195.594
346.722	210.522
349.615	87.917
352.507	145.86
355.4	99.6875
358.293	73.2129
361.186	11.956
364.078	194.701
366.971	54.8887
369.864	149.453
372.756	62.3203
375.649	124.494
378.542	162.488
381.434	90.3975
384.327	69.2617
387.22	30.9727
390.113	66.0156
393.005	60.7539
395.898	40.1514
398.791	45.9766
401.683	78.5557
404.576	111.301
407.469	185.103
410.361	254.088
413.254	264.896
416.147	265.37
419.04	135.755
421.932	28.7646
424.825	37.3633
427.718	1.94141
430.61	143.735
433.503	45.2578
436.396	42.9688
439.288	42.9062
442.181	113.987
445.074	176.933
447.966	69.0273
450.859	16.4727
453.752	10.1201
456.645	63.0557
459.537	44.3789
462.43	66.1191
465.323	32.5381
468.215	205.592
471.108	165.557
474.001	197.851
476.894	155.664
479.786	47.7031
482.679	67.6836
485.572	207.862
488.464	181.419
491.357	104.171
494.25	221.774
497.142	213.821
500.035	285.094
502.928	326.724
505.82	257.103
508.713	171.328
511.606	108.076
514.499	46.0156
517.391	20.3818
520.284	63.9385
523.177	60.8838
526.069	40.0772
528.962	75.5723
531.855	97.0859
534.747	162.137
537.64	125.193
540.533	70.6582
543.426	43.9668
546.318	36.7949
549.211	178.49
552.104	35.3848
554.996	190.959
557.889	85.6856
560.782	136.574
563.674	134.967
566.567	135.637
569.46	70.918
572.353	187.238
575.245	152.586
578.138	185.184
581.031	263.596
583.923	218.523
586.816	131.773
589.709	1.27344
592.601	194.615
595.494	183.041
598.387	167.768
601.28	19.0605
604.172	52.0254
607.065	29.7852
609.958	66.0312
612.85	76.6309
615.743	177.309
618.636	62.0566
621.529	99.5
624.421	41.7871
627.314	86.2207
630.207	92.7559
633.099	63.7812
635.992	172.465
638.885	301.711
641.777	563.203
644.67	773.793
647.563	1243.64
650.455	1513.74
653.348	927.494
656.241	563.598
659.134	356.834
662.026	69.582
664.919	289.174
667.812	61.4258
670.704	147.225
673.597	26.4297
676.49	99.709
679.382	245.619
682.275	229.422
685.168	174.133
688.061	155.469
690.953	95.2793
693.846	154.234
696.739	2.51172
699.631	164.723
702.524	145.883
705.417	268.842
708.309	195.162
711.202	204.69
714.095	194.844
716.987	161.035
719.88	142.305
722.773	221.68
725.666	282.56
728.558	233.42
731.451	111.853
734.344	136.115
737.236	73.4707
740.129	6.00977
743.022	150.078
745.915	153.883
748.807	163.435
751.7	113.473
754.593	114.481
757.485	125.441
760.378	43.2188
763.271	122.096
766.163	227.898
769.056	239.432
771.949	232.44
774.842	144.875
777.734	188.404
780.627	180.981
783.52	225.506
786.412	104.09
789.305	190.328
792.198	69.1152
795.091	49.0586
797.983	183.918
800.876	125.344
803.769	176.613
806.661	32.7988
809.554	129.228
812.447	55.0098
815.339	70.3164
818.232	82.2578
821.125	63.0586
824.017	119.887
826.91	90.7988
829.803	135.853
832.696	25.8574
835.588	3.19531
838.481	16.1094
841.374	5.93555
844.266	196.529
847.159	86.4785
850.052	209.832
852.944	105.953
855.837	160.023
858.73	150.898
861.622	40.4688
864.515	108.328
867.408	45.4922
870.301	77.7539
873.193	13.6172
876.086	7.08984
878.979	70.1602
881.871	73.5
884.764	140.789
887.657	99.4805
890.549	8.83984
893.442	128.723
896.335	133.586
899.228	111.535
902.12	136.336
905.013	177.055
907.906	232.367
910.798	81.3359
913.691	213.285
916.584	221.906
919.476	277.867
922.369	398.375
925.262	230.617
928.155	219.172
931.047	177.766
933.94	96.2344
936.833	125.723
939.725	264.141
942.618	150.012
945.511	297.398
948.404	231.492
951.296	165.527
954.189	127.961
957.082	102.738
959.974	55.4961
962.867	53.6133
965.76	67.957
968.652	283.039
971.545	226.699
974.438	84.5938
977.331	287.539
980.223	315.934
983.116	550.106
986.009	962.281
988.901	1012.48
991.794	494.391
994.687	183.277
997.579	330.492
1000.47	549.269
1003.37	569.25
1006.26	495.449
1009.15	396.027
1012.04	362.227
1014.94	377.922
1017.83	379.727
1020.72	149.418
1023.61	4.94141
1026.51	145.789
1029.4	155.109
1032.29	126.273
1035.18	376.004
1038.08	157.832
1040.97	294.273
1043.86	285.492
1046.76	158.039
1049.65	14.5391
1052.54	126.059
1055.43	13.3516
1058.33	161.484
1061.22	253.91
1064.11	299.43
1067	163.711
1069.9	258.746
1072.79	141.469
1075.68	233.547
1078.58	240.859
1081.47	318.074
1084.36	55.6406
1087.25	49.8633
1090.15	76.3047
1093.04	40.0938
1095.93	81.4883
1098.82	318.656
1101.72	169.297
1104.61	305.309
1107.5	137.758
1110.39	276.688
1113.29	322.195
1116.18	384.359
1119.07	183.32
1121.96	350.391
1124.86	264.637
1127.75	176.953
1130.64	219.707
1133.54	365.922
1136.43	404.93
1139.32	365.004
1142.21	81.7188
1145.11	145.824
1148	344.945
1150.89	327.25
1153.79	265.688
1156.68	15.4219
1159.57	270.586
1162.46	145.57
1165.36	42.457
1168.25	7.93359
1171.14	56.6367
1174.03	257.508
1176.93	223.602
1179.82	131.871
1182.71	38.875
1185.61	301.453
1188.5	379.117
1191.39	348.328
1194.28	236.859
1197.18	198.137
1200.07	162.531
1202.96	44.3281
1205.85	83.4102
1208.75	479.031
1211.64	206.891
1214.53	225.797
1217.42	264.758
1220.32	223.668
1223.21	216.297
1226.1	120.793
1228.99	123.852
1231.89	29.3711
1234.78	27.8945
1237.67	220.406
1240.57	108.922
1243.46	209.555
1246.35	214.715
1249.24	153.223
1252.14	275.215
1255.03	302.988
1257.92	293.402
1260.82	395.492
1263.71	14.0664
1266.6	213.125
1269.49	156.32
