Measurement: Raman, 532 nm, unoriented, Raman Data Processed
Mineral: Waylandite
Rruff sample: R130361
Ideal chemistry: Bi^3+^Al_3_(PO_4_)_2_(OH)_6_
Locality: Ngussa, Kivu, Zaire
Source: Rock Currier
Description: Colorless to pale brown crystals, associated with prismatic dark brown or bluish fluor-dravite
Raman shift (cm-1)	intensity
239.782	0
242.675	3.7453
245.567	5.14642
248.46	6.15802
251.353	6.58752
254.245	9.62274
257.138	13.5983
260.031	20.3138
262.924	18
265.816	14.0527
268.709	11.9741
271.602	11.4127
274.494	11.8881
277.387	8.2904
280.28	9.41437
283.173	4.55518
286.065	3.06018
288.958	1.92804
291.851	0.983643
294.743	1.2934
297.636	1.09558
300.529	1.67407
303.421	2.15131
306.314	1.39258
309.207	1.16101
312.099	0.391968
314.992	2.27551
317.885	6.00977
320.778	1.30383
323.67	2.68823
326.563	3.54236
329.456	3.56677
332.348	2.09717
335.241	3.62024
338.134	4.97217
341.027	5.98016
343.919	8.33807
346.812	6.68811
349.705	6.31024
352.597	6.01917
355.49	4.97607
358.383	7.09973
361.276	4.71356
364.168	7.53235
367.061	6.53125
369.954	8.42322
372.846	8.88831
375.739	16.0767
378.632	13.5523
381.524	15.2657
384.417	11.0059
387.31	17.377
390.202	17.5007
393.095	20.1912
395.988	15.1888
398.881	14.1473
401.773	8.80121
404.666	13.1438
407.559	6.45172
410.451	7.5155
413.344	10.209
416.237	7.94092
419.13	5.02991
422.022	6.53339
424.915	3.81085
427.808	8.00018
430.7	7.12048
433.593	1.67065
436.486	4.73895
439.378	4.99817
442.271	11.9515
445.164	8.81836
448.057	7.48944
450.949	5.95453
453.842	2.67645
456.735	0.142517
459.627	1.31769
462.52	1.19318
465.413	0.109375
468.305	1.2735
471.198	0.2005
474.091	7.75012
476.983	1.46686
479.876	4.05713
482.769	2.99451
485.662	1.1579
488.554	1.0451
491.447	1.27515
494.34	2.3244
497.232	1.26697
500.125	4.08923
503.018	6.61407
505.911	8.86591
508.803	11.0128
511.696	16.3543
514.589	19.4811
517.481	24.5682
520.374	27.6846
523.267	26.5622
526.159	21.4714
529.052	15.3035
531.945	11.8293
534.837	10.2544
537.73	7.29748
540.623	4.27319
543.516	1.28955
546.408	0.646545
549.301	0.430298
552.194	1.99548
555.086	2.1073
557.979	2.70312
560.872	0.568604
563.764	2.22681
566.657	0.303101
569.55	0.799316
572.443	1.58191
575.335	0.357056
578.228	1.69226
581.121	2.57983
584.013	3.80066
586.906	10.5967
589.799	7.52173
592.692	6.23828
595.584	9.1405
598.477	10.4271
601.37	12.4684
604.262	10.9316
607.155	13.5585
610.048	12.1848
612.94	12.0306
615.833	13.0244
618.726	11.0854
621.619	12.785
624.511	8.67151
627.404	3.16052
630.297	3.40454
633.189	4.1687
636.082	0.580688
638.975	7.72498
641.867	2.72449
644.76	0.78418
647.653	1.50366
650.545	3.62463
653.438	1.18921
656.331	2.31274
659.224	1.87903
662.116	3.31116
665.009	3.08508
667.902	4.40637
670.794	1.05249
673.687	1.06006
676.58	3.13293
679.472	4.151
682.365	0.89856
685.258	3.66174
688.151	4.82092
691.043	10.194
693.936	5.47363
696.829	6.25671
699.721	2.78528
702.614	3.39783
705.507	3.55591
708.399	4.0946
711.292	4.04602
714.185	0.975464
717.078	4.02124
719.97	3.1781
722.863	5.18665
725.756	5.64429
728.648	6.34619
731.541	3.20288
734.434	6.61133
737.327	7.62561
740.219	3.20093
743.112	5.1001
746.005	4.29346
748.897	6.34912
751.79	4.09448
754.683	1.82007
757.575	2.20606
760.468	1.40405
763.361	1.97546
766.254	4.41223
769.146	5.0769
772.039	3.93347
774.932	4.64087
777.824	1.67505
780.717	4.896
783.61	0.614746
786.502	2.05408
789.395	0.450928
792.288	2.36096
795.181	4.5979
798.073	2.2948
800.966	0.86853
803.859	0.542603
806.751	1.35364
809.644	4.18555
812.537	1.00769
815.429	2.71448
818.322	1.88049
821.215	8.12976
824.107	5.18591
827	4.36865
829.893	3.11145
832.786	2.82739
835.678	2.1012
838.571	4.0625
841.464	6.97998
844.356	7.37183
847.249	7.22205
850.142	8.89685
853.034	8.66809
855.927	10.6499
858.82	10.8053
861.713	11.3788
864.605	9.67188
867.498	12.2563
870.391	11.3848
873.283	9.45703
876.176	9.66223
879.069	7.80212
881.962	5.11462
884.854	6.30273
887.747	5.30969
890.64	5.44311
893.532	4.2428
896.425	5.56457
899.318	7.02173
902.21	9.76074
905.103	6.33594
907.996	9.5188
910.889	5.98792
913.781	9.10523
916.674	7.37744
919.567	7.72876
922.459	6.96301
925.352	8.58716
928.245	2.71362
931.137	4.3606
934.03	8.81091
936.923	7.21802
939.816	7.24768
942.708	8.06934
945.601	5.05725
948.494	8.23474
951.386	0.640625
954.279	1.12207
957.172	5.6283
960.064	0.744995
962.957	3.97156
965.85	8.24231
968.742	8.65881
971.635	6.2179
974.528	8.24463
977.421	5.64648
980.313	8.14905
983.206	7.83484
986.099	9.48706
988.991	9.61926
991.884	7.87024
994.777	11.7511
997.669	9.53528
1000.56	10.5165
1003.46	7.81995
1006.35	9.48193
1009.24	11.1583
1012.13	12.9944
1015.03	9.49683
1017.92	9.73132
1020.81	9.67737
1023.7	9.90857
1026.6	7.10059
1029.49	8.97839
1032.38	3.3855
1035.28	3.51575
1038.17	2.73535
1041.06	1.60022
1043.95	4.28625
1046.85	4.81372
1049.74	5.21301
1052.63	3.23694
1055.52	0.667847
1058.42	0.849487
1061.31	1.17334
1064.2	3.66528
1067.09	0.208374
1069.99	3.20349
1072.88	0.046509
1075.77	0.338501
1078.66	2.75537
1081.56	0.78833
1084.45	6.20093
1087.34	7.07873
1090.24	6.28503
1093.13	7.30652
1096.02	5.72595
1098.91	5.62488
1101.81	10.7224
1104.7	8.71863
1107.59	7.34998
1110.48	8.38977
1113.38	10.0867
1116.27	9.80249
1119.16	10.3068
1122.06	13.663
1124.95	7.88794
1127.84	8.86597
1130.73	8.52454
1133.63	3.57666
1136.52	7.01611
1139.41	6.79639
1142.3	3.59058
1145.2	4.87683
1148.09	9.01855
1150.98	4.44263
1153.88	2.68091
1156.77	0.535767
1159.66	2.85095
1162.55	2.97461
1165.45	3.69897
1168.34	1.24255
1171.23	4.96594
1174.12	3.66077
1177.02	7.10474
1179.91	5.75891
1182.8	6.11719
1185.69	6.10083
1188.59	2.4375
1191.48	2.09705
1194.37	2.33716
1197.27	9.31995
1200.16	10.1138
1203.05	4.82935
1205.94	11.2498
1208.84	6.3457
1211.73	10.6959
1214.62	10.6162
1217.52	2.49487
1220.41	0.737061
1223.3	5.45569
1226.19	7.62817
1229.09	1.71814
1231.98	2.7616
1234.87	0.159058
1237.76	4.42346
1240.66	0.047607
1243.55	3.75574
1246.44	6.78699
1249.33	7.5022
1252.23	5.26257
1255.12	3.28418
1258.01	8.5686
1260.9	10.4669
1263.8	9.01941
1266.69	5.94409
1269.58	8.19116
1272.48	2.85254
1275.37	3.93018
1278.26	3.51477
1281.15	8.38403
1284.05	7.06885
1286.94	0.92395
1289.83	0.052002
1292.72	4.26282
1295.62	2.3081
1298.51	2.45117
1301.4	1.05164
