Measurement: Raman, 780 nm, unoriented, Raman Data RAW
Mineral: Wesselsite
Rruff sample: R120019
Ideal chemistry: SrCu^2+^Si_4_O_10_
Locality: Wessels mine, Kalahari manganese field, Northern Cape Province, South Africa
Source: William W. Pinch
Description: Dark blue massive, associated with R120057 lavinskyite and R120077 scottyite
Measured chemistry: (Sr_0.98_Ba_0.04_)_Î£=1.02_Cu_1.05_Si_3.97_O_10_ ; (wesselsite is medium gray material in image, associated with samples R120057 new plancheite-like mineral, dark grey; and R120077 new mineral, light grey)
Raman shift (cm-1)	intensity
98.3531	24648
101.728	25056.2
105.103	25074.2
108.478	25828.1
111.852	25265.9
115.227	26563.7
118.602	26143
121.977	26928.5
125.352	27220.5
128.726	27624.7
132.101	27536.9
135.476	27618.3
138.851	28370.5
142.226	28994.2
145.601	29548.3
148.975	29550.9
152.35	30374.5
155.725	30485.1
159.1	30754.4
162.475	30824.5
165.85	31669.4
169.224	31872.5
172.599	32514.3
175.974	33043.8
179.349	32993.4
182.724	33457
186.098	33992.4
189.473	33865.3
192.848	34634.6
196.223	35118.8
199.598	35291.3
202.972	36085
206.347	36679.2
209.722	37740.9
213.097	37060.6
216.472	37965
219.847	38752.8
223.221	38710.7
226.596	39520.9
229.971	39915
233.346	40272.2
236.721	41084.6
240.095	41738.7
243.47	41574.9
246.845	42407.5
250.22	42862.2
253.595	43474.7
256.969	44183.9
260.344	44768.2
263.719	44898.5
267.094	45292
270.469	46379.2
273.844	46885.8
277.218	47266.9
280.593	48214.7
283.968	48177.7
287.343	49058.3
290.718	49486.9
294.092	50151.4
297.467	51316.7
300.842	51706
304.217	51926
307.592	52348.8
310.967	53242.1
314.341	53460.8
317.716	54887.2
321.091	55360.2
324.466	56095.1
327.841	56493.8
331.216	56825.6
334.59	57543.2
337.965	59016.5
341.34	59538.9
344.715	60791.2
348.09	60662.9
351.464	61821.6
354.839	62874.4
358.214	63030.9
361.589	63958.7
364.964	64449.1
368.339	65203.2
371.713	66825.6
375.088	67046.6
378.463	68006.6
381.838	68857.3
385.213	69540.3
388.587	70546.7
391.962	71267.1
395.337	72393.6
398.712	72257.2
402.087	73608.1
405.462	75007.7
408.836	75663.9
412.211	76543.7
415.586	77760.2
418.961	77984.2
422.336	79008.3
425.71	80073.5
429.085	81253
432.46	82749.9
435.835	82880.6
439.21	84125.6
442.584	85933.8
445.959	86014
449.334	87230.2
452.709	88267.7
456.084	89265
459.459	90983
462.833	91940.6
466.208	93244.1
469.583	93875.3
472.958	95782
476.333	96813
479.707	97481.1
483.082	98871.4
486.457	100103
489.832	100864
493.207	102393
496.582	103674
499.956	105464
503.331	105626
506.706	106402
510.081	108406
513.456	109450
516.83	110886
520.205	112585
523.58	113676
526.955	114225
530.33	115470
533.705	116771
537.079	118036
540.454	119788
543.829	120112
547.204	122937
550.579	123306
553.953	125384
557.328	127460
560.703	128688
564.078	130184
567.453	132114
570.827	133834
574.202	134510
577.577	136481
580.952	138539
584.327	140754
587.702	141576
591.076	143099
594.451	145186
597.826	147345
601.201	149156
604.576	151254
607.951	152447
611.325	154541
614.7	156158
618.075	157691
621.45	159187
624.825	160733
628.199	162862
631.574	165534
634.949	167048
638.324	169179
641.699	170600
645.073	172909
648.448	174649
651.823	177072
655.198	178366
658.573	179513
661.948	182280
665.322	183563
668.697	186457
672.072	188126
675.447	189492
678.822	191933
682.197	194421
685.571	197443
688.946	198615
692.321	201429
695.696	203536
699.071	205712
702.445	207420
705.82	210631
709.195	214071
712.57	215128
715.945	218392
719.319	220819
722.694	223800
726.069	225843
729.444	229597
732.819	231785
736.193	234811
739.568	236883
742.943	240135
746.318	243524
749.693	245235
753.068	249545
756.442	251847
759.817	255278
763.192	257138
766.567	260422
769.942	262603
773.317	265888
776.691	269217
780.066	271888
783.441	276081
786.816	278945
790.191	283048
793.565	285047
796.94	288318
800.315	292727
803.69	295325
807.065	299584
810.439	303862
813.814	306824
817.189	312351
820.564	314402
823.939	319436
827.314	322160
830.688	326446
834.063	330343
837.438	334647
840.813	338087
844.188	341023
847.562	345696
850.937	348180
854.312	353025
857.687	358006
861.062	361312
864.437	364708
867.811	369643
871.186	375316
874.561	379168
877.936	382818
881.311	384926
884.686	389007
888.06	393806
891.435	396921
894.81	401292
898.185	404161
901.56	409169
904.934	413594
908.309	416543
911.684	421819
915.059	425751
918.434	430322
921.808	437796
925.183	439647
928.558	445016
931.933	449764
935.308	454339
938.683	459480
942.057	463220
945.432	469326
948.807	473391
952.182	479684
955.557	487762
958.932	490305
962.306	494155
965.681	498175
969.056	505488
972.431	510867
975.806	514534
979.18	521298
982.555	526742
985.93	532214
989.305	538881
992.68	542834
996.054	550916
999.429	556838
1002.8	563869
1006.18	567572
1009.55	576734
1012.93	581055
1016.3	586825
1019.68	591643
1023.05	597847
1026.43	604134
1029.8	610591
1033.18	617555
1036.55	627965
1039.93	630441
1043.3	635960
1046.68	640205
1050.05	650608
1053.43	656006
1056.8	663174
1060.18	670700
1063.55	678698
1066.93	685801
1070.3	692392
1073.67	700387
1077.05	705084
1080.42	711564
1083.8	719342
1087.17	725584
1090.55	736107
1093.92	743326
1097.3	748724
1100.67	755752
1104.05	762354
1107.42	769790
1110.8	777419
1114.17	784470
1117.55	790545
1120.92	796904
1124.3	808377
1127.67	818081
1131.05	826732
1134.42	834514
1137.8	840873
1141.17	851188
1144.55	857187
1147.92	866550
1151.3	873241
1154.67	880524
1158.05	890716
1161.42	895841
1164.8	906364
1168.17	915647
1171.55	922765
1174.92	935188
1178.3	943103
1181.67	951795
1185.04	960068
1188.42	971888
1191.79	976663
1195.17	984676
1198.54	994613
1201.92	1.0058e+06
1205.29	1.01204e+06
1208.67	1.01878e+06
1212.04	1.02912e+06
1215.42	1.03732e+06
1218.79	1.04764e+06
1222.17	1.057e+06
1225.54	1.06103e+06
1228.92	1.07325e+06
1232.29	1.08588e+06
1235.67	1.0941e+06
1239.04	1.10309e+06
1242.42	1.11053e+06
1245.79	1.1231e+06
1249.17	1.13242e+06
1252.54	1.14185e+06
1255.91	1.15263e+06
1259.29	1.16378e+06
1262.66	1.17686e+06
1266.04	1.18862e+06
1269.41	1.2017e+06
1272.79	1.20899e+06
1276.16	1.22025e+06
1279.54	1.23125e+06
1282.91	1.24381e+06
