Measurement: Raman, 785 nm, unoriented, Raman Data Processed
Mineral: Westerveldite
Rruff sample: R060507
Ideal chemistry: FeAs
Locality: Kvanefjeld, Ilimaussaq, Greenland
Source: Michael Scott
Description: Metallic silver massive, associated with elongated dark-green diopside.
Raman shift (cm-1)	intensity
159.133	0
162.026	59.7352
164.919	2.36792
167.811	41.4288
170.704	51.9977
173.597	103.983
176.489	92.6107
179.382	31.3629
182.275	40.4054
185.167	29.8549
188.06	42.9467
190.953	79.84
193.846	104.57
196.738	133.352
199.631	103.698
202.524	139.726
205.416	142.305
208.309	123.969
211.202	133.921
214.094	103.975
216.987	95.8625
219.88	74.5358
222.773	74.0498
225.665	18.8022
228.558	61.9308
231.451	43.4751
234.343	11.8242
237.236	42.8526
240.129	17.7571
243.021	8.14258
245.914	11.3129
248.807	9.11169
251.699	15.5325
254.592	3.65674
257.485	25.2972
260.378	35.6959
263.27	5.98883
266.163	5.57672
269.056	22.8777
271.948	32.3453
274.841	16.5182
277.734	23.4175
280.626	17.723
283.519	11.017
286.412	41.1015
289.305	19.4857
292.197	16.9584
295.09	10.5612
297.983	16.5476
300.875	11.7227
303.768	39.6773
306.661	9.94592
309.553	16.241
312.446	3.56769
315.339	10.1661
318.232	5.01166
321.124	5.21375
324.017	16.671
326.91	20.5444
329.802	8.69183
332.695	27.2099
335.588	36.8607
338.48	35.742
341.373	19.0229
344.266	33.2063
347.159	20.3404
350.051	64.4326
352.944	16.8789
355.837	5.04993
358.729	8.21558
361.622	24.5649
364.515	32.8619
367.408	36.0028
370.3	20.9897
373.193	16.887
376.086	8.62512
378.978	55.3008
381.871	17.2615
384.764	20.2206
387.656	42.4782
390.549	32.2152
393.442	53.856
396.335	17.7502
399.227	19.6466
402.12	29.8695
405.013	11.0861
407.905	49.7601
410.798	28.4749
413.691	51.3824
416.583	86.4816
419.476	85.3737
422.369	62.79
425.262	76.6712
428.154	84.7794
431.047	54.775
433.94	105.779
436.832	65.9622
439.725	89.4476
442.618	118.694
445.51	88.2494
448.403	144.522
451.296	127.605
454.189	128.68
457.081	117.091
459.974	167.694
462.867	159.852
465.759	196.321
468.652	180.471
471.545	127.749
474.437	152.502
477.33	126.336
480.223	119.561
483.116	111.029
486.008	98.22
488.901	66.0869
491.794	59.8403
494.686	74.676
497.579	53.4842
500.472	29.7848
503.364	55.3444
506.257	15.1668
509.15	6.74628
512.042	8.28128
514.935	12.4116
517.828	18.2845
520.721	24.4162
523.613	16.5929
526.506	10.7979
529.399	20.7097
532.291	10.7523
535.184	1.62723
538.077	5.4545
540.969	3.10385
543.862	10.9984
546.755	2.43155
549.648	22.8547
552.54	28.8235
555.433	33.5553
558.326	66.013
561.218	20.3896
564.111	27.7009
567.004	8.67172
569.896	17.302
572.789	15.0313
575.682	18.4941
578.575	19.3451
581.467	22.2287
584.36	31.2273
587.253	32.5485
590.145	20.1462
593.038	13.7972
595.931	39.8128
598.823	7.15341
601.716	13.417
604.609	70.3293
607.502	31.1186
610.394	78.6574
613.287	9.94192
616.18	33.3917
619.072	4.84933
621.965	31.2207
624.858	12.5854
627.75	11.1688
630.643	10.3353
633.536	60.9776
636.429	16.4102
639.321	44.9094
642.214	3.28897
645.107	2.31857
647.999	40.2685
650.892	46.0687
653.785	8.91193
656.677	31.0052
659.57	19.9198
662.463	41.6957
665.356	34.2879
668.248	35.7992
671.141	38.8049
674.034	29.9086
676.926	33.6064
679.819	9.98297
682.712	16.4557
685.604	25.0315
688.497	29.9328
691.39	54.3011
694.283	27.0443
697.175	10.7842
700.068	24.2916
702.961	6.24304
705.853	30.8617
708.746	51.0219
711.639	44.9366
714.531	56.6288
717.424	43.8366
720.317	31.3488
723.21	28.3541
726.102	22.1419
728.995	29.5499
731.888	0.388702
734.78	51.1281
737.673	48.6007
740.566	49.9398
743.458	44.8833
746.351	43.0967
749.244	36.4174
752.137	30.825
755.029	43.1514
757.922	31.6835
760.815	65.0241
763.707	35.1905
766.6	45.5869
769.493	2.21634
772.385	32.4625
775.278	39.1591
778.171	14.5325
781.064	11.4642
783.956	42.07
786.849	18.3563
789.742	23.2125
792.634	37.4071
795.527	33.2719
798.42	29.1787
801.312	41.617
804.205	4.57434
807.098	26.4506
809.991	47.3176
812.883	1.15292
815.776	35.0579
818.669	27.3469
821.561	46.8224
824.454	45.7113
827.347	42.8648
830.24	25.2924
833.132	36.1362
836.025	22.8838
838.918	40.8928
841.81	11.4164
844.703	32.5026
847.596	4.85672
850.488	59.2732
853.381	22.1369
856.274	64.5028
859.167	21.9327
862.059	30.282
864.952	71.8064
867.845	63.958
870.737	25.3143
873.63	39.748
876.523	0.467255
879.415	32.8176
882.308	0.874207
885.201	15.744
888.094	4.53055
890.986	12.5821
893.879	24.4535
896.772	32.3603
899.664	25.6663
902.557	49.7089
905.45	30.9265
908.342	55.2425
911.235	40.3938
914.128	75.4741
917.021	29.1622
919.913	36.6278
922.806	34.7529
925.699	9.07446
928.591	46.1003
931.484	9.55987
934.377	25.6463
937.269	71.5599
940.162	34.7555
943.055	37.3239
945.948	49.489
948.84	25.7473
951.733	26.8813
954.626	25.305
957.518	58.4581
960.411	11.4074
963.304	20.4807
966.196	12.5076
969.089	36.6229
971.982	1.45084
974.875	14.2771
977.767	68.7552
980.66	43.5603
983.553	12.9196
986.445	25.6701
989.338	48.6938
992.231	21.6314
995.123	43.0583
998.016	45.82
1000.91	42.5919
1003.8	51.43
1006.69	55.4398
1009.59	70.6595
1012.48	66.0289
1015.37	5.43604
1018.26	32.1096
1021.16	5.04993
1024.05	0.254669
1026.94	23.4356
1029.84	19.6928
1032.73	14.658
1035.62	59.7106
1038.51	13.6948
1041.41	38.1742
1044.3	58.4903
1047.19	58.1206
1050.09	34.9677
1052.98	29.1186
1055.87	19.3416
1058.76	26.7379
1061.66	26.0392
1064.55	55.2358
1067.44	29.0741
1070.33	36.078
1073.23	32.7346
1076.12	21.4397
1079.01	14.108
1081.9	30.1745
1084.8	70.1803
1087.69	67.4885
1090.58	35.6201
1093.47	42.9503
1096.37	31.4916
1099.26	31.7622
1102.15	6.52457
1105.05	19.6884
1107.94	8.82059
1110.83	3.36636
1113.72	4.97803
1116.62	31.8673
1119.51	41.2219
1122.4	53.9922
1125.3	59.4845
1128.19	44.5586
1131.08	50.5122
1133.97	56.7377
1136.87	16.6031
1139.76	22.0417
1142.65	19.2589
1145.54	15.4289
1148.44	7.60788
1151.33	61.4405
1154.22	5.43326
1157.12	2.32617
1160.01	32.4173
1162.9	23.8043
1165.79	25.6462
1168.68	32.7674
1171.58	60.0895
1174.47	33.6046
1177.36	26.761
1180.26	48.8617
1183.15	8.60327
1186.04	29.3902
1188.93	5.87631
1191.83	29.2772
1194.72	33.1743
1197.61	69.6352
1200.51	33.0569
1203.4	53.4944
1206.29	20.953
1209.18	37.1592
1212.08	53.8901
1214.97	1.56103
1217.86	64.8373
1220.75	68.4231
1223.65	23.3148
1226.54	44.2996
1229.43	64.0277
1232.33	6.22385
1235.22	30.8357
1238.11	15.6536
1241	84.02
1243.9	31.9279
1246.79	22.9683
1249.68	23.3816
1252.57	76.9565
1255.47	33.4619
1258.36	55.9044
1261.25	17.3217
