Measurement: Raman, 532 nm, unoriented, Raman Data Processed
Mineral: Wickenburgite
Rruff sample: R060048
Ideal chemistry: Pb^2+^_3_CaAl_2_Si_10_O_27_4H_2_O
Locality: Rat Tail Claim, Wickenburg, Maricopa County, Arizona, USA
Source: University of Arizona Mineral Museum
Description: Colorless thin hexagonal prisms
Measured chemistry: (Pb_2.95_Zn_0.05_)_Σ=3_Ca_1.00_(Al_1.90_Fe^3+^_0.10_)_Σ=2_Si_10.00_O_27_·4H_2_O
Raman shift (cm-1)	intensity
148.788	0
152.163	1.5
155.537	30.8047
158.912	407.812
162.287	645.359
165.662	871.984
169.037	1002.42
172.411	517.32
175.786	389.891
179.161	430.734
182.536	508.422
185.911	555.492
189.286	612.656
192.66	299.164
196.035	584.523
199.41	430.391
202.785	570.5
206.16	799.688
209.534	696.328
212.909	350.203
216.284	164.859
219.659	156.422
223.034	130.609
226.409	119.094
229.783	40.4062
233.158	246.234
236.533	331.594
239.908	349.344
243.283	226.828
246.657	101.5
250.032	301.438
253.407	430.359
256.782	362.172
260.157	541.672
263.531	436.062
266.906	390.297
270.281	741.344
273.656	1044.86
277.031	952.625
280.406	702.047
283.78	775.938
287.155	898.016
290.53	778.953
293.905	754.031
297.28	794.578
300.654	228.562
304.029	207.531
307.404	614.891
310.779	639.703
314.154	399.641
317.529	363.062
320.903	841.125
324.278	457.438
327.653	170.172
331.028	222.266
334.403	270
337.777	221
341.152	167.656
344.527	161.766
347.902	243.391
351.277	359.578
354.651	424.203
358.026	59.1562
361.401	28.7344
364.776	107.312
368.151	135.297
371.526	165.391
374.9	192.703
378.275	173.094
381.65	356.656
385.025	230.781
388.4	189.297
391.774	245.219
395.149	303.953
398.524	291.344
401.899	374.453
405.274	350.938
408.649	505.062
412.023	55.4688
415.398	298.547
418.773	347.516
422.148	251.031
425.523	210.172
428.897	54.2188
432.272	171.719
435.647	169.469
439.022	135.469
442.397	189.375
445.772	295.328
449.146	126.141
452.521	233.656
455.896	115.969
459.271	14.5
462.646	569.656
466.02	773.031
469.395	680.766
472.77	274.703
476.145	77.125
479.52	42.4375
482.894	222.75
486.269	510.922
489.644	530.719
493.019	329
496.394	66.4531
499.769	319.875
503.143	729.469
506.518	788.188
509.893	540.922
513.268	909.172
516.643	902.969
520.017	384.078
523.392	488.609
526.767	704.453
530.142	901.328
533.517	671.656
536.891	692.734
540.266	453.625
543.641	347.906
547.016	216.641
550.391	500.172
553.766	1200.98
557.14	977.297
560.515	453.5
563.89	285.031
567.265	33.3125
570.64	252.578
574.014	349.922
577.389	970.594
580.764	733.203
584.139	770.047
587.514	354.953
590.889	469.906
594.263	140.188
597.638	156.594
601.013	80.5625
604.388	150.75
607.763	189.75
611.137	498.25
614.512	871.703
617.887	966.516
621.262	970.922
624.637	524.266
628.011	347.141
631.386	253.922
634.761	411.359
638.136	216.719
641.511	171.266
644.886	292.906
648.26	658.656
651.635	619.297
655.01	427
658.385	741.516
661.76	430.344
665.135	287.688
668.509	255.578
671.884	480.953
675.259	705.297
678.634	865.641
682.009	462.281
685.383	189.5
688.758	41.3125
692.133	357.906
695.508	583.047
698.883	222.438
702.257	511.125
705.632	406.391
709.007	373.609
712.382	279.484
715.757	495.109
719.131	348.688
722.506	527.047
725.881	466.609
729.256	67.1875
732.631	199.109
736.006	187.25
739.38	261.469
742.755	165.234
746.13	29.2656
749.505	15.9375
752.88	60.4062
756.255	124.516
759.629	80.5469
763.004	109.312
766.379	219.109
769.754	368.578
773.129	506.406
776.503	923.859
779.878	634.594
783.253	506.172
786.628	434.25
790.003	566.594
793.377	573.312
796.752	796.516
800.127	835.594
803.502	535.391
806.877	383.938
810.251	836.016
813.626	625.062
817.001	430.984
820.376	237.953
823.751	456.125
827.125	728.766
830.5	642.484
833.875	342.672
837.25	197.156
840.625	229.953
844	531.609
847.375	553.188
850.749	353.859
854.124	118.719
857.499	196.281
860.874	192.25
864.249	288.125
867.623	454.641
870.998	181.797
874.373	330.188
877.748	111.078
881.123	23.9844
884.497	45.875
887.872	12.6094
891.247	212.484
894.622	146.812
897.997	432.859
901.371	425.094
904.746	557.75
908.121	570.281
911.496	449.797
914.871	807.594
918.245	771.781
921.62	915.891
924.995	469.5
928.37	391.531
931.745	500.609
935.12	355.234
938.494	427.094
941.869	305.906
945.244	435.906
948.619	220.953
951.994	72.8281
955.369	147.766
958.743	291.312
962.118	273.922
965.493	341.75
968.868	303.125
972.243	386.312
975.617	347.766
978.992	169.859
982.367	553.406
985.742	115.203
989.117	96.1406
992.491	125.875
995.866	325.953
999.241	637.047
1002.62	832.469
1005.99	664.672
1009.37	385.281
1012.74	50.0938
1016.12	345.047
1019.49	639.969
1022.87	317.422
1026.24	140.609
1029.62	444.891
1032.99	846.578
1036.36	413.484
1039.74	184
1043.11	122.562
1046.49	211.078
1049.86	265.156
1053.24	374.234
1056.61	327.406
1059.99	464.312
1063.36	145.359
1066.74	762.875
1070.11	395.078
1073.49	275.016
1076.86	25.1875
1080.24	338.594
1083.61	566.844
1086.99	820.672
1090.36	229.719
1093.74	71.1562
1097.11	190.734
1100.49	699.734
1103.86	883.719
1107.23	373.891
1110.61	274.641
1113.98	223.062
1117.36	168.156
1120.73	23.4062
1124.11	209.641
1127.48	42.875
1130.86	367.734
1134.23	342.453
1137.61	478.672
1140.98	378.109
1144.36	389.578
1147.73	80.3594
1151.11	205.75
1154.48	461.281
1157.86	599.406
1161.23	397.297
1164.61	342.906
1167.98	400.828
1171.36	7.9375
1174.73	250.25
1178.11	141.469
1181.48	227.672
1184.86	322
1188.23	175.266
1191.61	345.906
1194.98	167.297
1198.36	20.25
1201.73	286.812
1205.11	461.453
1208.48	499.797
1211.85	312.078
1215.23	91.9688
1218.6	104.203
1221.98	147.172
1225.35	565.047
1228.73	620.641
1232.1	79.75
1235.48	9.8125
1238.85	30.6875
1242.23	8.1875
1245.6	177.531
1248.98	47.9219
1252.35	280.656
1255.73	378.344
1259.1	246.031
1262.48	211.797
1265.85	512.953
1269.23	251.203
1272.6	581.094
1275.98	140.562
1279.35	378.891
1282.73	561.766
1286.1	453.625
1289.47	482.672
1292.85	417.734
1296.22	583.859
1299.6	238
1302.97	261.5
