Measurement: Raman, 532 nm, unoriented, Raman Data RAW
Mineral: Willemite
Rruff sample: R100109
Ideal chemistry: Zn^2+^_2_SiO_4_
Locality: Franklin, Sussex County, New Jersey, USA
Source: American Museum of Natural History
Description: Pale yellow transparent fragments
Measured chemistry: (Zn_1.677_Mn^+2^_0.242_Mg_0.034_Fe^+2^_0.001_)_Î£=1.954_Si_1.023_O_4_
Raman shift (cm-1)	intensity
100.135	6020.41
103.509	6206.2
106.884	6419.3
110.259	6668.2
113.634	6933.82
117.009	7151.88
120.383	7446.19
123.758	8017.57
127.133	9770.05
130.508	14698
133.883	26341.2
137.257	51952.1
140.632	104456
144.007	160792
147.382	202657
150.757	267467
154.132	347086
157.506	399053
160.881	431861
164.256	469920
167.631	490964
171.006	505019
174.381	506320
177.755	503879
181.13	502678
184.505	504836
187.88	507576
191.255	507193
194.629	504317
198.004	502445
201.379	501583
204.754	502290
208.129	500302
211.504	497316
214.878	495390
218.253	494801
221.628	492798
225.003	492114
228.377	490442
231.752	490541
235.127	489274
238.502	485310
241.877	483754
245.252	482960
248.626	481672
252.001	479612
255.376	478636
258.751	477010
262.126	474359
265.5	473602
268.875	473589
272.25	470518
275.625	468301
279	467269
282.375	465778
285.75	464698
289.124	465599
292.499	465066
295.874	462588
299.249	461757
302.623	458993
305.998	457870
309.373	456427
312.748	455443
316.123	454108
319.498	453322
322.872	452487
326.247	450261
329.622	449170
332.997	446950
336.372	446448
339.747	445249
343.121	444391
346.496	441520
349.871	439817
353.246	437800
356.621	438011
359.995	437038
363.37	436161
366.745	433933
370.12	431283
373.495	429302
376.87	427440
380.244	426649
383.619	424892
386.994	423667
390.369	422607
393.744	420893
397.118	418806
400.493	417454
403.868	416066
407.243	415487
410.618	413417
413.993	413144
417.367	410436
420.742	407653
424.117	405954
427.492	403662
430.866	403473
434.241	402266
437.616	400732
440.991	399427
444.366	396272
447.741	394528
451.115	392768
454.49	391125
457.865	389718
461.24	388178
464.615	387503
467.99	385790
471.364	383350
474.739	380734
478.114	379051
481.489	378484
484.864	377176
488.238	375245
491.613	373168
494.988	371468
498.363	370241
501.738	369093
505.113	367588
508.487	365495
511.862	363949
515.237	362166
518.612	360364
521.987	358432
525.361	357422
528.736	355639
532.111	353956
535.486	352191
538.861	350311
542.236	348638
545.61	346618
548.985	345313
552.36	343985
555.735	342265
559.11	340834
562.484	339700
565.859	338079
569.234	336581
572.609	334580
575.984	332389
579.359	330382
582.733	329978
586.108	329204
589.483	327378
592.858	325135
596.232	323044
599.607	321631
602.982	319892
606.357	319084
609.732	317834
613.107	316355
616.481	314251
619.856	312290
623.231	310620
626.606	309542
629.981	307984
633.356	307140
636.73	305824
640.105	303076
643.48	301144
646.855	300309
650.23	299993
653.604	298941
656.979	297494
660.354	296557
663.729	294691
667.104	293367
670.479	292196
673.853	291174
677.228	290089
680.603	288461
683.978	287714
687.353	286179
690.727	285042
694.102	283790
697.477	282646
700.852	281561
704.227	279772
707.601	279058
710.976	278595
714.351	277419
717.726	275140
721.101	273109
724.476	272875
727.85	271823
731.225	270598
734.6	269588
737.975	267957
741.35	266375
744.725	265051
748.099	264526
751.474	263543
754.849	261524
758.224	260085
761.599	258889
764.973	258083
768.348	256916
771.723	255631
775.098	254737
778.473	253300
781.847	252210
785.222	251028
788.597	249977
791.972	249331
795.347	247984
798.722	246466
802.096	245114
805.471	244344
808.846	242639
812.221	241129
815.596	240347
818.971	239838
822.345	238875
825.72	237215
829.095	236018
832.47	235097
835.845	234420
839.219	232450
842.594	232120
845.969	231133
849.344	230031
852.719	228673
856.093	227841
859.468	226917
862.843	225892
866.218	224835
869.593	223568
872.967	222972
876.342	222677
879.717	220776
883.092	219068
886.467	218005
889.842	217241
893.216	216507
896.591	215570
899.966	214474
903.341	213480
906.716	212620
910.091	211272
913.465	210344
916.84	209408
920.215	208280
923.59	206955
926.965	206471
930.339	205700
933.714	203853
937.089	202997
940.464	201969
943.839	201382
947.213	200623
950.588	199613
953.963	198853
957.338	197770
960.713	197038
964.088	195427
967.462	194010
970.837	193751
974.212	193140
977.587	192645
980.962	191656
984.337	190992
987.711	189955
991.086	189012
994.461	187330
997.836	186105
1001.21	185680
1004.59	184982
1007.96	184413
1011.34	183490
1014.71	182598
1018.09	181622
1021.46	180815
1024.83	179352
1028.21	178966
1031.58	178069
1034.96	177628
1038.33	176416
1041.71	174836
1045.08	174082
1048.46	172923
1051.83	172354
1055.21	172028
1058.58	170929
1061.96	169541
1065.33	169079
1068.71	167876
1072.08	167526
1075.46	166931
1078.83	166542
1082.21	165851
1085.58	164697
1088.96	163766
1092.33	163435
1095.7	162638
1099.08	161884
1102.45	161005
1105.83	160269
1109.2	159816
1112.58	158965
1115.95	157969
1119.33	157524
1122.7	156916
1126.08	155470
1129.45	155223
1132.83	154252
1136.2	153707
1139.58	152417
1142.95	151861
1146.33	151229
1149.7	150765
1153.08	150234
1156.45	149512
1159.83	148473
1163.2	147381
1166.58	146953
1169.95	146319
1173.33	145750
1176.7	144911
1180.08	143742
1183.45	143312
1186.83	142384
1190.2	141326
1193.58	141048
1196.95	140617
1200.33	139844
1203.7	138848
1207.07	138550
1210.45	138172
1213.82	137482
1217.2	136744
1220.57	136016
1223.95	135408
1227.32	134320
1230.7	133983
1234.07	133355
1237.45	132489
1240.82	131575
1244.2	131203
1247.57	130995
1250.95	130469
1254.32	129822
1257.7	128966
1261.07	128155
1264.45	127522
1267.82	127369
1271.2	126349
1274.57	125697
1277.95	124935
1281.32	124420
1284.69	123558
1288.07	122939
1291.44	122383
1294.82	122654
1298.19	121768
1301.57	121809
