Measurement: Raman, 780 nm, unoriented, Raman Data Processed
Mineral: Wohlerite
Rruff sample: R050275
Ideal chemistry: NaCa_2_(Zr^4+^,Nb^5+^)(Si_2_O_7_)(O,F)_2_
Locality: Langesundsfjord, Norway
Source: Marcus Origlieri
Description: Yellowish brown granular
Raman shift (cm-1)	intensity
98.9404	0
101.833	23.8616
104.726	1.49243
107.618	2.07898
110.511	45.1807
113.404	119.195
116.297	227.093
119.189	362.082
122.082	519.128
124.975	702.107
127.867	898.213
130.76	1119.56
133.653	1355.75
136.546	1596.04
139.438	1838.48
142.331	2051.08
145.224	2245.94
148.116	2396.66
151.009	2508.24
153.902	2584.07
156.794	2613.12
159.687	2553.18
162.58	2453
165.472	2275.05
168.365	2058.71
171.258	1822.58
174.151	1616.25
177.043	1397.57
179.936	1207.52
182.829	1031.83
185.721	867.156
188.614	731.566
191.507	607.896
194.399	490.021
197.292	378.144
200.185	285.546
203.078	215.71
205.97	157.662
208.863	114.139
211.756	84.8616
214.648	66.5911
217.541	56.9585
220.434	55.5
223.326	57.6462
226.219	64.5503
229.112	68.6807
232.005	74.1834
234.897	75.7869
237.79	73.5796
240.683	61.05
243.575	57.0444
246.468	50.3389
249.361	39.104
252.253	24.7102
255.146	18.3633
258.039	5.16479
260.932	15.2539
263.824	12.8191
266.717	23.2649
269.61	19.6333
272.502	18.8313
275.395	7.0874
278.288	7.86108
281.18	4.09229
284.073	11.2903
286.966	8.68555
289.859	13.7087
292.751	24.6362
295.644	26.8691
298.537	33.6641
301.429	47.325
304.322	58.884
307.215	80.1016
310.108	98.6975
313	107.216
315.893	122.285
318.786	116.906
321.678	121.587
324.571	113.431
327.464	86.9678
330.356	73.0999
333.249	50.1435
336.142	18.0967
339.034	0.369873
341.927	2.8291
344.82	22.6841
347.712	21.6733
350.605	7.80273
353.498	12.7283
356.391	47.6895
359.283	93.6675
362.176	144.329
365.069	203.205
367.961	265.633
370.854	349.299
373.747	411.987
376.639	477.5
379.532	556.495
382.425	637.919
385.318	699.552
388.21	758.682
391.103	808.69
393.996	848.602
396.888	883.585
399.781	920.26
402.674	959.938
405.567	1002.54
408.459	1080.08
411.352	1165.51
414.245	1266.02
417.137	1390.48
420.03	1516.6
422.923	1653.03
425.815	1770.02
428.708	1896.17
431.601	1983.61
434.493	2023.65
437.386	2011.84
440.279	1934.18
443.172	1817.94
446.064	1634.82
448.957	1442.46
451.85	1215.58
454.742	1017.01
457.635	833.583
460.528	676.975
463.421	537.194
466.313	400.593
469.206	311.728
472.099	220.185
474.991	152.069
477.884	86.427
480.777	38.8872
483.669	10.7754
486.562	17.6746
489.455	38.7183
492.348	36.279
495.24	30.0046
498.133	5.49829
501.026	17.1379
503.918	45.0637
506.811	85.4302
509.704	149.561
512.596	197.273
515.489	264.404
518.382	331.018
521.274	398.205
524.167	468.441
527.06	522.836
529.953	569.357
532.845	606.86
535.738	633.468
538.631	643.186
541.523	633.93
544.416	620.323
547.309	594.915
550.202	551.638
553.094	497.376
555.987	463.706
558.88	423.455
561.772	375.842
564.665	336.762
567.558	303.557
570.45	267.35
573.343	222.209
576.236	195.993
579.129	171.356
582.021	141.579
584.914	118.004
587.807	94.7803
590.699	75.9739
593.592	49.9961
596.485	33.2722
599.377	24.9788
602.27	14.9933
605.163	15.783
608.056	4.44019
610.948	1.99255
613.841	0.555298
616.734	1.80432
619.626	2.57251
622.519	0.641968
625.412	3.16968
628.304	3.86133
631.197	3.47022
634.09	2.17481
636.982	5.01623
639.875	3.56311
642.768	13.4546
645.661	16.4963
648.553	31.2119
651.446	37.986
654.339	51.3669
657.231	56.8738
660.124	54.7304
663.017	55.5604
665.909	50.3314
668.802	52.8792
671.695	44.6268
674.588	43.0764
677.48	37.4187
680.373	32.1446
683.266	27.7799
686.158	24.8297
689.051	18.7018
691.944	9.76025
694.837	11.1908
697.729	8.33777
700.622	3.77563
703.515	4.2688
706.407	1.53638
709.3	0.265625
712.193	4.35974
715.085	0.359375
717.978	3.98456
720.871	9.24347
723.764	0.916382
726.656	5.18677
729.549	6.88538
732.442	5.46039
735.334	10.9447
738.227	12.0907
741.12	15.1554
744.012	26.0992
746.905	36.421
749.798	50.6505
752.691	47.8554
755.583	50.7112
758.476	48.7548
761.369	33.6043
764.261	20.1497
767.154	11.3565
770.047	3.13074
772.939	2.49591
775.832	1.91553
778.725	3.45062
781.617	11.2656
784.51	20.0839
787.403	30.9229
790.296	55.2165
793.188	98.9249
796.081	164.072
798.974	232.682
801.866	322.442
804.759	404.265
807.652	489.49
810.544	537.179
813.437	528.923
816.33	435.883
819.223	313.691
822.115	210.66
825.008	141.261
827.901	99.5014
830.793	76.2008
833.686	64.3713
836.579	58.1545
839.471	52.8057
842.364	47.4571
845.257	42.5682
848.15	40.2629
851.042	34.6877
853.935	22.7452
856.828	13.8568
859.72	8.7337
862.613	2.52942
865.506	1.52844
868.399	0.974792
871.291	0.443542
874.184	1.50177
877.077	0.514587
879.969	6.91748
882.862	10.5209
885.755	16.0189
888.647	18.5123
891.54	22.1852
894.433	34.0281
897.326	42.7628
900.218	47.8323
903.111	54.5998
906.004	54.9894
908.896	53.4221
911.789	42.9127
914.682	31.9919
917.574	22.7941
920.467	17.8045
923.36	11.1235
926.252	17.0788
929.145	16.7125
932.038	13.8804
934.931	7.20166
937.823	5.22156
940.716	0.044617
943.609	10.9994
946.501	16.708
949.394	25.5597
952.287	30.9266
955.179	29.9392
958.072	26.9293
960.965	21.9531
963.857	22.1221
966.75	18.2601
969.643	16.9247
972.536	20.3591
975.428	22.614
978.321	22.6518
981.214	19.0865
984.106	22.332
986.999	23.6071
989.892	25.6876
992.784	23.1583
995.677	24.7158
998.57	23.4833
1001.46	23.9311
1004.36	27.0645
1007.25	26.5373
1010.14	25.6019
1013.03	28.5418
1015.93	31.6882
1018.82	30.1535
1021.71	31.6938
1024.6	29.9068
1027.5	28.8505
1030.39	24.3032
1033.28	24.4141
1036.17	22.2822
1039.07	22.5958
1041.96	22.1628
1044.85	15.6738
1047.75	12.9354
1050.64	11.4001
1053.53	9.16376
1056.42	4.93805
1059.32	3.9549
1062.21	1.57696
1065.1	1.64661
1067.99	3.16821
1070.89	0.453796
1073.78	0.209045
1076.67	9.27832
1079.57	13.9748
1082.46	23.7669
1085.35	33.8072
1088.24	45.6272
1091.14	62.7562
1094.03	82.7624
1096.92	92.1156
1099.81	106.741
1102.71	127.113
1105.6	140.013
1108.49	152.898
1111.38	161.983
1114.28	162.918
1117.17	176.655
1120.06	175.853
1122.96	170.796
1125.85	161.705
1128.74	135.688
1131.63	114.648
1134.53	90.3721
1137.42	67.613
1140.31	48.7269
1143.2	29.0342
1146.1	15.5037
1148.99	0.46228
1151.88	1.14331
1154.78	1.99426
1157.67	3.82178
1160.56	7.67822
1163.45	8.32324
1166.35	26.7707
1169.24	37.2809
1172.13	43.8379
1175.03	42.3016
1177.92	34.962
1180.81	33.0607
1183.7	24.528
1186.6	11.8331
1189.49	7.81763
1192.38	0.110229
