Measurement: Raman, 785 nm, unoriented, Raman Data Processed
Mineral: Woodwardite
Rruff sample: R060762
Ideal chemistry: (Cu^2+^,Al)_9_(S^6+^O_4_)_2_(OH)_18_nH_2_O
Locality: Cornwall, England
Source: Michael Scott
Description: Pale blue granular coating on bull quartz
Raman shift (cm-1)	intensity
163.954	0
166.847	4.29556
169.739	0.129868
172.632	32.027
175.525	56.6764
178.417	17.1481
181.31	49.4087
184.203	28.2465
187.096	34.4774
189.988	24.6586
192.881	27.7841
195.774	43.666
198.666	38.0417
201.559	39.1023
204.452	0.36911
207.345	23.7435
210.237	21.6282
213.13	24.8229
216.023	57.7936
218.915	15.0923
221.808	55.2936
224.701	71.3891
227.593	117.742
230.486	16.9556
233.379	39.7681
236.272	74.7651
239.164	63.4537
242.057	83.5105
244.95	50.9147
247.842	72.5673
250.735	48.1786
253.628	13.9927
256.52	38.8732
259.413	53.1617
262.306	29.2547
265.199	79.3775
268.091	72.2431
270.984	52.3491
273.877	47.5289
276.769	49.2277
279.662	56.7516
282.555	66.7313
285.447	66.8757
288.34	44.2895
291.233	1.477
294.125	16.4614
297.018	12.9203
299.911	20.928
302.804	14.9233
305.696	12.8935
308.589	10.7883
311.482	69.9649
314.374	40.8922
317.267	45.5475
320.16	48.4375
323.053	26.3352
325.945	38.9115
328.838	41.1952
331.731	36.6352
334.623	37.1337
337.516	12.079
340.409	18.9591
343.301	24.7193
346.194	31.6234
349.087	33.2869
351.979	44.2936
354.872	18.1866
357.765	6.75931
360.658	41.4637
363.55	35.7146
366.443	45.8838
369.336	48.1991
372.228	25.2541
375.121	23.2271
378.014	16.7819
380.906	23.3179
383.799	11.5473
386.692	4.93687
389.585	12.2013
392.477	14.2954
395.37	10.8012
398.263	36.2527
401.155	19.9553
404.048	17.307
406.941	4.83901
409.834	33.6823
412.726	36.3155
415.619	0.136658
418.512	22.7774
421.404	25.4716
424.297	38.5704
427.19	18.0399
430.082	22.7619
432.975	59.1315
435.868	57.9547
438.76	1.53621
441.653	43.467
444.546	98.2906
447.439	73.4745
450.331	94.9806
453.224	81.798
456.117	18.9004
459.009	68.9363
461.902	49.9979
464.795	41.5254
467.687	9.88396
470.58	16.5627
473.473	14.2881
476.365	1.93822
479.258	28.4335
482.151	29.2267
485.044	25.8312
487.936	38.745
490.829	68.4062
493.722	37.3419
496.614	35.8512
499.507	58.6544
502.4	41.4285
505.293	49.0552
508.185	47.4781
511.078	29.1345
513.971	34.076
516.863	29.1545
519.756	38.6107
522.649	12.5787
525.541	26.4365
528.434	50.242
531.327	23.6101
534.22	21.6585
537.112	0.721786
540.005	37.1604
542.898	68.1608
545.79	0.333282
548.683	4.4615
551.576	15.1406
554.468	14.4718
557.361	34.5781
560.254	34.9166
563.146	20.1962
566.039	35.8322
568.932	32.5003
571.825	32.1704
574.717	43.2422
577.61	56.2613
580.503	45.3894
583.395	10.2074
586.288	17.51
589.181	61.7693
592.073	28.5621
594.966	16.6687
597.859	39.4762
600.752	43.8514
603.644	66.941
606.537	22.1356
609.43	21.9577
612.322	45.7274
615.215	34.7196
618.108	40.3758
621	55.8251
623.893	36.2431
626.786	43.3993
629.679	0.158722
632.571	24.0058
635.464	33.8164
638.357	11.1314
641.25	14.5443
644.142	32.0216
647.035	23.4578
649.928	32.0952
652.82	32.6575
655.713	29.401
658.606	34.3816
661.498	46.6318
664.391	11.6849
667.284	28.0038
670.177	21.5765
673.069	15.3455
675.962	33.8211
678.855	18.922
681.747	9.99199
684.64	30.2808
687.533	31.8872
690.425	22.5028
693.318	12.0865
696.211	7.74413
699.104	8.27344
701.996	35.538
704.889	3.98825
707.782	15.5404
710.674	29.0615
713.567	18.715
716.46	8.05528
719.352	18.9609
722.245	33.3602
725.138	60.71
728.03	30.9442
730.923	61.9435
733.816	16.8037
736.709	1.12987
739.601	33.6739
742.494	40.4721
745.387	27.7632
748.279	48.8973
751.172	72.0861
754.065	21.5388
756.957	37.2909
759.85	79.8429
762.743	12.6518
765.636	19.9701
768.528	18.741
771.421	2.21489
774.314	55.5707
777.206	42.6741
780.099	31.7595
782.992	9.32434
785.885	33.7682
788.777	83.9426
791.67	32.3902
794.563	20.2865
797.455	28.0841
800.348	42.9932
803.241	14.1411
806.133	11.0909
809.026	49.5592
811.919	66.3039
814.812	41.6735
817.704	56.655
820.597	26.0125
823.49	47.2068
826.382	44.2504
829.275	45.1292
832.168	34.139
835.06	16.9894
837.953	36.9909
840.846	40.9609
843.738	24.5505
846.631	21.9979
849.524	27.3444
852.417	37.0979
855.309	49.6794
858.202	27.0389
861.095	41.0465
863.987	23.7899
866.88	20.5314
869.773	1.31416
872.665	73.5511
875.558	23.8107
878.451	30.854
881.343	13.7604
884.236	52.4618
887.129	45.2338
890.022	51.3173
892.914	54.7448
895.807	92.5069
898.7	74.8919
901.592	36.3228
904.485	18.1079
907.378	46.8818
910.27	14.5862
913.163	44.494
916.056	3.10373
918.949	56.0863
921.841	6.16028
924.734	6.20816
927.627	21.5814
930.519	53.679
933.412	70.6675
936.305	51.7832
939.197	51.3517
942.09	54.9644
944.983	9.55403
947.876	11.5158
950.768	18.8302
953.661	30.5254
956.554	44.5924
959.446	54.8193
962.339	88.1469
965.232	87.6908
968.125	140.347
971.017	157.058
973.91	168.451
976.803	102.287
979.695	76.6415
982.588	39.2804
985.481	38.5502
988.373	67.5688
991.266	14.7952
994.159	22.0556
997.052	0.984512
999.944	33.0059
1002.84	17.3293
1005.73	41.6567
1008.62	53.6834
1011.51	54.4743
1014.41	41.9117
1017.3	5.28543
1020.19	40.8633
1023.09	4.31532
1025.98	1.15489
1028.87	3.99016
1031.76	35.5687
1034.66	11.4933
1037.55	7.76462
1040.44	6.98553
1043.34	4.3037
1046.23	1.82307
1049.12	18.597
1052.01	49.7672
1054.91	32.7079
1057.8	36.1955
1060.69	4.81944
1063.58	19.5812
1066.48	38.9598
1069.37	42.7479
1072.26	38.2323
1075.15	66.4559
1078.05	2.78576
1080.94	31.4891
1083.83	46.9425
1086.72	49.4701
1089.62	40.8255
1092.51	42.9958
1095.4	43.8351
1098.3	16.8496
1101.19	50.2085
1104.08	28.7869
1106.97	12.21
1109.87	40.3328
1112.76	54.132
1115.65	20.3869
1118.55	45.8952
1121.44	59.1427
1124.33	40.0808
1127.22	31.1544
1130.12	7.92045
1133.01	30.8761
1135.9	34.1091
1138.79	37.568
1141.69	31.5042
1144.58	13.6279
1147.47	37.554
1150.37	21.2848
1153.26	6.67786
1156.15	48.4507
1159.04	54.5068
1161.93	31.2034
1164.83	20.0865
1167.72	56.093
1170.61	53.2562
1173.51	19.5531
1176.4	8.53911
1179.29	24.3181
1182.18	42.258
1185.08	50.3136
1187.97	49.9061
1190.86	64.1335
1193.76	36.6085
1196.65	63.7798
1199.54	23.7711
1202.43	30.3597
1205.33	18.8128
1208.22	27.8749
1211.11	17.8724
1214	83.073
1216.9	65.1919
1219.79	79.1573
1222.68	60.1173
1225.58	85.0839
1228.47	22.4744
1231.36	92.5319
1234.25	12.2556
1237.15	27.9055
1240.04	44.5622
1242.93	87.7403
1245.82	80.6762
1248.72	49.3335
1251.61	30.9717
