Measurement: Raman, 780 nm, unoriented, Raman Data Processed
Mineral: Wooldridgeite
Rruff sample: R100005
Ideal chemistry: Na_2_CaCu^2+^_2_(P_2_O_7_)_2_10H_2_O
Locality: Judkins Quarry, Nuneaton, Warwickshire, England
Source: William Pinch
Description: Pale green equant rhombic-dipyramidal crystals, co-type sample
Raman shift (cm-1)	intensity
104.68	0
108.055	0.699103
111.43	1.54379
114.805	1.0102
118.18	0.845466
121.554	2.99206
124.929	3.76381
128.304	1.46309
131.679	2.02289
135.054	1.35678
138.428	2.13236
141.803	3.38175
145.178	1.71215
148.553	2.01066
151.928	2.05787
155.303	2.80035
158.677	0.403047
162.052	1.6392
165.427	2.09374
168.802	2.01343
172.177	0.529364
175.551	2.34277
178.926	0.884166
182.301	1.30907
185.676	0.067292
189.051	1.8092
192.425	1.02219
195.8	1.96663
199.175	2.03446
202.55	2.05973
205.925	3.32869
209.3	2.36083
212.674	0.393069
216.049	0.250611
219.424	2.38654
222.799	1.80932
226.174	0.186408
229.548	2.93559
232.923	2.25162
236.298	1.2297
239.673	3.41572
243.048	3.30421
246.423	2.44471
249.797	2.60302
253.172	2.23983
256.547	0.520295
259.922	1.85122
263.297	0.963549
266.671	2.54483
270.046	2.36327
273.421	0.244942
276.796	1.44345
280.171	1.50118
283.546	1.80414
286.92	1.49426
290.295	3.33522
293.67	0.911627
297.045	1.32385
300.42	2.62458
303.794	2.7474
307.169	1.74826
310.544	2.13022
313.919	1.59529
317.294	2.34772
320.668	1.56437
324.043	1.94961
327.418	3.61565
330.793	0.094163
334.168	1.48927
337.543	1.59099
340.917	1.9389
344.292	3.00005
347.667	1.63629
351.042	0.748766
354.417	1.90628
357.791	2.95238
361.166	2.33915
364.541	1.11531
367.916	2.32133
371.291	1.56143
374.666	3.21352
378.04	3.14487
381.415	4.8854
384.79	2.0155
388.165	4.12465
391.54	0.547282
394.914	0.974099
398.289	0.091962
401.664	1.99422
405.039	0.426509
408.414	0.615771
411.789	1.66635
415.163	1.92907
418.538	1.80243
421.913	0.675211
425.288	0.076774
428.663	1.65782
432.038	1.35429
435.412	1.5206
438.787	0.087207
442.162	1.92434
445.537	0.527297
448.912	1.44424
452.286	2.46347
455.661	2.89262
459.036	1.87552
462.411	1.11954
465.786	2.25845
469.161	1.09953
472.535	1.01141
475.91	2.04068
479.285	0.026643
482.66	1.25815
486.034	1.70201
489.409	2.28622
492.784	2.06119
496.159	1.7889
499.534	0.28461
502.909	1.84159
506.283	2.30897
509.658	0.465087
513.033	3.65971
516.408	3.03994
519.783	0.816564
523.158	1.78718
526.532	1.50912
529.907	3.4735
533.282	1.52329
536.657	0.241729
540.032	2.55572
543.406	1.85313
546.781	0.560418
550.156	0.349946
553.531	0.707365
556.906	2.53483
560.28	0.327865
563.655	1.45948
567.03	2.47355
570.405	1.73362
573.78	2.41649
577.155	2.12382
580.529	0.889536
583.904	2.37476
587.279	0.27733
590.654	1.23424
594.029	1.93173
597.404	1.50128
600.778	2.05592
604.153	0.630078
607.528	1.47135
610.903	0.205529
614.278	1.90229
617.652	2.08496
621.027	1.27952
624.402	1.96781
627.777	1.91436
631.152	1.26873
634.527	0.885991
637.901	0.184665
641.276	1.62415
644.651	1.63299
648.026	3.1373
651.401	2.94471
654.775	3.35723
658.15	0.182281
661.525	1.25774
664.9	1.80663
668.275	2.59785
671.649	0.818613
675.024	2.85223
678.399	1.11984
681.774	0.726337
685.149	0.786133
688.524	1.22525
691.898	0.07591
695.273	1.36427
698.648	2.23227
702.023	0.073473
705.398	0.97
708.773	1.64004
712.147	2.07921
715.522	1.64579
718.897	1.40442
722.272	3.82542
725.646	2.77715
729.021	1.84819
732.396	0.207053
735.771	2.19967
739.146	3.32281
742.521	3.46555
745.895	2.48169
749.27	2.06871
752.645	1.79298
756.02	2.36126
759.395	2.72966
762.769	2.21699
766.144	3.01877
769.519	1.05432
772.894	2.22363
776.269	2.27465
779.644	1.72007
783.018	1.93174
786.393	1.79845
789.768	0.670226
793.143	2.12075
796.518	2.89141
799.893	2.65702
803.267	1.58887
806.642	1.44956
810.017	1.08499
813.392	3.88518
816.767	1.08551
820.141	1.58574
823.516	2.22305
826.891	1.81418
830.266	1.70808
833.641	2.15234
837.015	0.601604
840.39	2.25012
843.765	1.78343
847.14	0.070662
850.515	1.22759
853.89	2.18538
857.264	2.96088
860.639	1.09178
864.014	1.80459
867.389	1.84502
870.764	2.40835
874.139	1.97828
877.513	1.79911
880.888	1.58921
884.263	2.24631
887.638	2.27552
891.013	1.83803
894.387	1.50298
897.762	1.24062
901.137	2.7901
904.512	1.9613
907.887	1.17268
911.261	0.212023
914.636	1.47984
918.011	1.71424
921.386	3.22476
924.761	0.459103
928.136	1.4966
931.51	2.7807
934.885	2.51343
938.26	0.619041
941.635	1.33964
945.01	0.745509
948.385	0.695765
951.759	1.41891
955.134	1.81025
958.509	2.17814
961.884	1.88037
965.259	2.35046
968.633	1.27848
972.008	0.624865
975.383	2.44622
978.758	1.02759
982.133	1.95925
985.507	1.09431
988.882	0.351754
992.257	1.59446
995.632	1.97431
999.007	2.10319
1002.38	1.14466
1005.76	2.73763
1009.13	2.31612
1012.51	0.793365
1015.88	0.510394
1019.26	0.568471
1022.63	2.05215
1026.01	0.400932
1029.38	1.78193
1032.76	0.638566
1036.13	3.10116
1039.51	3.83248
1042.88	3.49839
1046.25	5.33212
1049.63	5.77741
1053	3.17866
1056.38	2.9889
1059.75	3.2736
1063.13	2.50312
1066.5	2.98455
1069.88	2.32389
1073.25	0.798009
1076.63	2.79892
1080	1.90337
1083.38	1.58005
1086.75	0.202161
1090.13	1.87982
1093.5	0.515607
1096.88	0.984008
1100.25	0.545272
1103.63	1.30889
1107	0.379406
1110.38	2.7082
1113.75	3.97149
1117.12	1.66029
1120.5	3.31591
1123.88	1.68106
1127.25	0.532609
1130.62	0.469734
1134	1.67542
1137.37	0.829039
1140.75	2.27415
1144.12	1.61577
1147.5	1.51239
1150.87	1.5941
1154.25	0.298721
1157.62	1.05307
1161	1.4704
1164.37	2.16973
1167.75	2.62412
1171.12	0.687568
1174.5	2.62854
1177.87	2.06295
1181.25	1.64748
1184.62	1.90746
1188	2.79656
1191.37	2.09054
1194.75	1.38155
1198.12	2.68712
1201.5	1.98478
1204.87	0.149345
1208.24	2.39729
1211.62	2.59523
1214.99	1.86825
1218.37	1.67854
1221.74	0.024569
1225.12	1.93242
1228.49	0.672773
1231.87	1.45965
1235.24	3.96535
1238.62	3.25112
1241.99	0.552137
1245.37	1.8556
1248.74	3.24723
1252.12	1.94732
1255.49	2.0237
1258.87	1.82483
1262.24	0.102914
1265.62	2.33269
1268.99	1.8552
1272.37	1.54611
1275.74	0.645205
1279.12	1.05374
1282.49	1.11193
