Measurement: Raman, , unoriented, Raman Data Processed
Mineral: Wurtzite
Rruff sample: R130069
Ideal chemistry: Zn^2+^S^2+^
Locality: Merelani Hills (Mererani), Lelatema Mountains, Arusha Region, Tanzania
Source: William W. Pinch
Description: Reddish brown blocky crystals, polytype wurtzite-4H
Raman shift (cm-1)	intensity
102.77	1.23225e+06
106.145	1.23562e+06
109.52	1.24251e+06
112.895	1.24984e+06
116.27	1.25969e+06
119.644	1.26802e+06
123.019	1.27822e+06
126.394	1.28918e+06
129.769	1.29655e+06
133.144	1.30561e+06
136.518	1.31539e+06
139.893	1.32262e+06
143.268	1.33213e+06
146.643	1.34288e+06
150.018	1.35205e+06
153.393	1.3595e+06
156.767	1.36901e+06
160.142	1.37809e+06
163.517	1.38639e+06
166.892	1.39567e+06
170.267	1.40149e+06
173.642	1.408e+06
177.016	1.41588e+06
180.391	1.42379e+06
183.766	1.43216e+06
187.141	1.44188e+06
190.516	1.45013e+06
193.89	1.45646e+06
197.265	1.46441e+06
200.64	1.47278e+06
204.015	1.4819e+06
207.39	1.49038e+06
210.764	1.49802e+06
214.139	1.506e+06
217.514	1.51256e+06
220.889	1.52143e+06
224.264	1.531e+06
227.638	1.53784e+06
231.013	1.54607e+06
234.388	1.55299e+06
237.763	1.56042e+06
241.138	1.56743e+06
244.513	1.57549e+06
247.887	1.58355e+06
251.262	1.59234e+06
254.637	1.59955e+06
258.012	1.60637e+06
261.387	1.61634e+06
264.762	1.62342e+06
268.136	1.63229e+06
271.511	1.63908e+06
274.886	1.64844e+06
278.261	1.65412e+06
281.635	1.66256e+06
285.01	1.66516e+06
288.385	1.67251e+06
291.76	1.68039e+06
295.135	1.68716e+06
298.51	1.69446e+06
301.884	1.70238e+06
305.259	1.70932e+06
308.634	1.71823e+06
312.009	1.72431e+06
315.384	1.73353e+06
318.759	1.73959e+06
322.133	1.7462e+06
325.508	1.75095e+06
328.883	1.75974e+06
332.258	1.76994e+06
335.633	1.77765e+06
339.007	1.78302e+06
342.382	1.78876e+06
345.757	1.79371e+06
349.132	1.80175e+06
352.507	1.8086e+06
355.882	1.81996e+06
359.256	1.82759e+06
362.631	1.83535e+06
366.006	1.84204e+06
369.381	1.84997e+06
372.755	1.85311e+06
376.13	1.85992e+06
379.505	1.8675e+06
382.88	1.87607e+06
386.255	1.88395e+06
389.63	1.89073e+06
393.004	1.89517e+06
396.379	1.90516e+06
399.754	1.9136e+06
403.129	1.92236e+06
406.504	1.92964e+06
409.878	1.93787e+06
413.253	1.94783e+06
416.628	1.9546e+06
420.003	1.96551e+06
423.378	1.97271e+06
426.753	1.97652e+06
430.127	1.98846e+06
433.502	1.99699e+06
436.877	2.00687e+06
440.252	2.01369e+06
443.627	2.02181e+06
447.001	2.02861e+06
450.376	2.0364e+06
453.751	2.04601e+06
457.126	2.05591e+06
460.501	2.06254e+06
463.875	2.06759e+06
467.25	2.07808e+06
470.625	2.08571e+06
474	2.09001e+06
477.375	2.09868e+06
480.75	2.10675e+06
484.124	2.11492e+06
487.499	2.12055e+06
490.874	2.12688e+06
494.249	2.13052e+06
497.624	2.13798e+06
500.998	2.14363e+06
504.373	2.1515e+06
507.748	2.1567e+06
511.123	2.16758e+06
514.498	2.1772e+06
517.873	2.18226e+06
521.247	2.18778e+06
524.622	2.19325e+06
527.997	2.20109e+06
531.372	2.20363e+06
534.747	2.20829e+06
538.121	2.21458e+06
541.496	2.22719e+06
544.871	2.23478e+06
548.246	2.2424e+06
551.621	2.2512e+06
554.995	2.25595e+06
558.37	2.26606e+06
561.745	2.2724e+06
565.12	2.27914e+06
568.495	2.28647e+06
571.87	2.29172e+06
575.244	2.29693e+06
578.619	2.30578e+06
581.994	2.31578e+06
585.369	2.33308e+06
588.744	2.33726e+06
592.119	2.34081e+06
595.493	2.34132e+06
598.868	2.34939e+06
602.243	2.35849e+06
605.618	2.36684e+06
608.993	2.37218e+06
612.367	2.38138e+06
615.742	2.3847e+06
619.117	2.39154e+06
622.492	2.40238e+06
625.867	2.41038e+06
629.241	2.41214e+06
632.616	2.41928e+06
635.991	2.42474e+06
639.366	2.43349e+06
642.741	2.43965e+06
646.115	2.4466e+06
649.49	2.45062e+06
652.865	2.45771e+06
656.24	2.46626e+06
659.615	2.47014e+06
662.99	2.47206e+06
666.364	2.48089e+06
669.739	2.48267e+06
673.114	2.49076e+06
676.489	2.49237e+06
679.864	2.50008e+06
683.239	2.50481e+06
686.613	2.51077e+06
689.988	2.51489e+06
693.363	2.52412e+06
696.738	2.53122e+06
700.112	2.53467e+06
703.487	2.5375e+06
706.862	2.54473e+06
710.237	2.55164e+06
713.612	2.55853e+06
716.987	2.5637e+06
720.361	2.5728e+06
723.736	2.57932e+06
727.111	2.58536e+06
730.486	2.59515e+06
733.861	2.6033e+06
737.236	2.60594e+06
740.61	2.61032e+06
743.985	2.61734e+06
747.36	2.62308e+06
750.735	2.62723e+06
754.11	2.63096e+06
757.484	2.63869e+06
760.859	2.64544e+06
764.234	2.64954e+06
767.609	2.65325e+06
770.984	2.663e+06
774.359	2.67066e+06
777.733	2.67077e+06
781.108	2.67524e+06
784.483	2.68833e+06
787.858	2.69853e+06
791.232	2.70274e+06
794.607	2.71609e+06
797.982	2.71594e+06
801.357	2.71785e+06
804.732	2.72771e+06
808.107	2.73685e+06
811.481	2.73882e+06
814.856	2.74526e+06
818.231	2.75228e+06
821.606	2.76044e+06
824.981	2.77005e+06
828.356	2.78065e+06
831.73	2.78221e+06
835.105	2.78683e+06
838.48	2.79159e+06
841.855	2.79588e+06
845.23	2.7976e+06
848.604	2.8045e+06
851.979	2.81038e+06
855.354	2.81705e+06
858.729	2.82236e+06
862.104	2.82681e+06
865.479	2.83075e+06
868.853	2.83149e+06
872.228	2.83571e+06
875.603	2.83737e+06
878.978	2.84149e+06
882.352	2.8491e+06
885.727	2.85288e+06
889.102	2.85972e+06
892.477	2.86404e+06
895.852	2.86422e+06
899.227	2.87264e+06
902.601	2.87534e+06
905.976	2.87876e+06
909.351	2.87744e+06
912.726	2.88689e+06
916.101	2.89167e+06
919.476	2.8966e+06
922.85	2.89769e+06
926.225	2.90276e+06
929.6	2.91261e+06
932.975	2.9158e+06
936.35	2.91616e+06
939.724	2.92301e+06
943.099	2.92816e+06
946.474	2.9322e+06
949.849	2.93704e+06
953.224	2.9387e+06
956.598	2.94078e+06
959.973	2.94596e+06
963.348	2.94718e+06
966.723	2.95037e+06
970.098	2.95088e+06
973.472	2.95294e+06
976.847	2.95379e+06
980.222	2.9582e+06
983.597	2.96384e+06
986.972	2.96749e+06
990.347	2.96967e+06
993.721	2.97602e+06
997.096	2.97712e+06
1000.47	2.98494e+06
1003.85	2.98769e+06
1007.22	2.99058e+06
1010.6	2.99195e+06
1013.97	2.99612e+06
1017.35	2.9986e+06
1020.72	3.00672e+06
1024.1	3.00641e+06
1027.47	3.01122e+06
1030.84	3.01112e+06
1034.22	3.01322e+06
1037.59	3.0181e+06
1040.97	3.02409e+06
1044.34	3.02522e+06
1047.72	3.02568e+06
1051.09	3.03161e+06
1054.47	3.0357e+06
1057.84	3.03725e+06
1061.22	3.04223e+06
1064.59	3.04531e+06
1067.97	3.04561e+06
1071.34	3.04766e+06
1074.72	3.05446e+06
1078.09	3.05311e+06
1081.47	3.05381e+06
1084.84	3.05904e+06
1088.22	3.06163e+06
1091.59	3.06275e+06
1094.97	3.06502e+06
1098.34	3.06603e+06
1101.71	3.06537e+06
1105.09	3.06349e+06
1108.46	3.06621e+06
1111.84	3.0715e+06
1115.21	3.0749e+06
1118.59	3.0766e+06
1121.96	3.07968e+06
1125.34	3.08234e+06
1128.71	3.0893e+06
1132.09	3.08661e+06
1135.46	3.09051e+06
1138.84	3.0981e+06
1142.21	3.10378e+06
1145.59	3.10363e+06
1148.96	3.10789e+06
1152.34	3.11099e+06
1155.71	3.12123e+06
1159.09	3.118e+06
1162.46	3.1205e+06
1165.84	3.12743e+06
1169.21	3.13377e+06
1172.59	3.13814e+06
1175.96	3.14223e+06
1179.34	3.14298e+06
1182.71	3.13864e+06
1186.09	3.14066e+06
1189.46	3.14024e+06
1192.84	3.14158e+06
1196.21	3.14704e+06
1199.59	3.14751e+06
1202.96	3.14453e+06
1206.34	3.14324e+06
1209.71	3.13973e+06
1213.08	3.14492e+06
1216.46	3.14559e+06
1219.83	3.14054e+06
1223.21	3.1385e+06
1226.58	3.13669e+06
1229.96	3.1358e+06
1233.33	3.13805e+06
1236.71	3.14496e+06
1240.08	3.14038e+06
1243.46	3.13852e+06
1246.83	3.13727e+06
1250.21	3.14302e+06
1253.58	3.15036e+06
1256.96	3.15191e+06
1260.33	3.14868e+06
1263.71	3.15276e+06
1267.08	3.1522e+06
1270.46	3.16148e+06
1273.83	3.16878e+06
1277.21	3.16822e+06
1280.58	3.17284e+06
1283.95	3.174e+06
