Measurement: Raman, 532 nm, unoriented, Raman Data Processed
Mineral: Wurtzite
Rruff sample: R130069
Ideal chemistry: Zn^2+^S^2+^
Locality: Merelani Hills (Mererani), Lelatema Mountains, Arusha Region, Tanzania
Source: William W. Pinch
Description: Reddish brown blocky crystals, polytype wurtzite-4H
Raman shift (cm-1)	intensity
193.981	9740.95
196.874	10437.8
199.766	10611.9
202.659	11005.4
205.552	11237
208.445	11626.2
211.337	12113
214.23	12477.2
217.123	12901.8
220.015	13028.5
222.908	13278.2
225.801	13423.8
228.693	13595.4
231.586	13769.6
234.479	14055.6
237.371	14235.6
240.264	14449.1
243.157	14630.7
246.05	14782.2
248.942	14894.6
251.835	15087
254.728	15320.8
257.62	15458.2
260.513	15588.1
263.406	15824.7
266.298	15968.2
269.191	16194.9
272.084	16300
274.977	16701.7
277.869	16798.4
280.762	17123
283.655	17258.5
286.547	17559.3
289.44	17856.8
292.333	18189.2
295.226	18299
298.118	18500.7
301.011	18585.2
303.904	18791.6
306.796	18947
309.689	19125.3
312.582	19318.5
315.474	19617
318.367	19745.7
321.26	20115.6
324.152	20293.7
327.045	20608.2
329.938	20776
332.831	21018.5
335.723	21332.7
338.616	21473.9
341.509	21902.4
344.401	22226.2
347.294	22570.6
350.187	22893.5
353.079	23007.8
355.972	23242.1
358.865	23124
361.758	23215.5
364.65	23430.2
367.543	23837.9
370.436	24092
373.328	24251.9
376.221	24541.7
379.114	24868.3
382.007	25144.3
384.899	25373.2
387.792	25596.2
390.685	25789.9
393.577	26112.1
396.47	26232.2
399.363	26545.2
402.255	26904.6
405.148	27057.8
408.041	27361.6
410.933	27704.9
413.826	27932.8
416.719	28224.1
419.612	28434.2
422.504	28642.2
425.397	29014
428.29	29353.6
431.182	29560.1
434.075	29926.5
436.968	30212.8
439.861	30519
442.753	30877.9
445.646	31171.8
448.539	31503.3
451.431	31616.8
454.324	31878.9
457.217	32185.3
460.109	32565.3
463.002	32795.3
465.895	33160.8
468.788	33367.1
471.68	33734.1
474.573	34222.8
477.466	34542.9
480.358	34821.1
483.251	35130.7
486.144	35300.2
489.036	35722.9
491.929	36054.5
494.822	36332.9
497.714	36795.9
500.607	37117.1
503.5	37561.9
506.393	37840.5
509.285	38188.7
512.178	38520.7
515.071	38744.2
517.963	39135.6
520.856	39423.1
523.749	39755.9
526.641	40250.5
529.534	40645.3
532.427	41016.4
535.32	41464.5
538.212	41899.8
541.105	42200.2
543.998	42519
546.89	42923.9
549.783	43411.3
552.676	43789.5
555.568	44215.6
558.461	44517.6
561.354	44897.3
564.247	45214.7
567.139	45611.3
570.032	46204.2
572.925	46500.3
575.817	46876.7
578.71	47367.1
581.603	47741.4
584.495	48127
587.388	48921.5
590.281	49238.8
593.174	49594.8
596.066	50098.9
598.959	50673
601.852	50961.2
604.744	51428.3
607.637	51897.1
610.53	52402.6
613.423	52759.1
616.315	53296.6
619.208	53919.8
622.101	54248.9
624.993	54604.9
627.886	55145.5
630.779	55603.2
633.671	56010.8
636.564	56537.3
639.457	56708.3
642.35	57264.9
645.242	57834.2
648.135	58385.2
651.028	58919.8
653.92	59460
656.813	59974.9
659.706	60458.1
662.598	60911.2
665.491	61443.9
668.384	61789.6
671.277	62254.2
674.169	62687.9
677.062	63253.1
679.955	63805
682.847	64214.3
685.74	65032.3
688.633	65695.2
691.525	66073.6
694.418	66645.3
697.311	66931.9
700.203	67590.4
703.096	67905.4
705.989	68773.6
708.882	69127.4
711.774	69875
714.667	69999
717.56	70534.6
720.452	71527.1
723.345	72048.8
726.238	72529.9
729.13	73076.7
732.023	73678.2
734.916	74231.9
737.809	74615.2
740.701	75158.9
743.594	75824
746.487	76872
749.379	77302.4
752.272	77543.2
755.165	78097.9
758.058	78568.4
760.95	79156
763.843	80257.4
766.736	80544.3
769.628	81093.7
772.521	82032.6
775.414	82614.7
778.306	82961.7
781.199	83488.7
784.092	84012.7
786.985	84727.5
789.877	85207.5
792.77	86080.5
795.663	86742.3
798.555	87269.6
801.448	87696.7
804.341	88230.5
807.233	89019
810.126	89647.8
813.019	90466.8
815.912	91165.9
818.804	91777.6
821.697	92708.5
824.59	93121.5
827.482	93842.4
830.375	94227.1
833.268	94558.4
836.16	95400.2
839.053	96344.7
841.946	97169.2
844.838	97697.3
847.731	98314
850.624	98707.3
853.517	99537.5
856.409	100550
859.302	101108
862.195	101367
865.087	102179
867.98	102868
870.873	103701
873.765	103988
876.658	104718
879.551	105322
882.444	106245
885.336	106677
888.229	107639
891.122	108060
894.014	109174
896.907	109854
899.8	110659
902.692	111266
905.585	112114
908.478	112733
911.371	113397
914.263	114006
917.156	114648
920.049	115616
922.941	116398
925.834	117104
928.727	117522
931.62	118448
934.512	119504
937.405	119974
940.298	120718
943.19	121330
946.083	122410
948.976	122815
951.868	123104
954.761	123580
957.654	124321
960.547	125438
963.439	126416
966.332	127138
969.225	128081
972.117	128834
975.01	129662
977.903	130263
980.795	130932
983.688	131464
986.581	132280
989.473	132869
992.366	133737
995.259	134402
998.152	135110
1001.04	136248
1003.94	136561
1006.83	137692
1009.72	138183
1012.62	139425
1015.51	139961
1018.4	140664
1021.29	141504
1024.19	142106
1027.08	143075
1029.97	143733
1032.86	144177
1035.76	145034
1038.65	145366
1041.54	146306
1044.43	147415
1047.33	147878
1050.22	148611
1053.11	149396
1056.01	150039
1058.9	150614
1061.79	151261
1064.68	152503
1067.58	153172
1070.47	154078
1073.36	154820
1076.26	155325
1079.15	156111
1082.04	157377
1084.93	158251
1087.83	158844
1090.72	159542
1093.61	160105
1096.5	160769
1099.4	161608
1102.29	162252
1105.18	162879
1108.07	163463
1110.97	164446
1113.86	165426
1116.75	165851
1119.64	167166
1122.54	168005
1125.43	168332
1128.32	168797
1131.22	169346
1134.11	170804
1137	171260
1139.89	171712
1142.79	172550
1145.68	173155
1148.57	174058
1151.46	175127
1154.36	175281
1157.25	175668
1160.14	176708
1163.04	177545
1165.93	177896
1168.82	178762
1171.71	180040
1174.61	180738
1177.5	181482
1180.39	182233
1183.28	182763
1186.18	183048
1189.07	183270
1191.96	184494
1194.86	185193
1197.75	186456
1200.64	187557
1203.53	187614
1206.43	188778
1209.32	189551
1212.21	190498
1215.1	190670
1218	191058
1220.89	191917
1223.78	192904
1226.67	193615
1229.57	193863
1232.46	195107
1235.35	195362
1238.25	195715
1241.14	196814
1244.03	197932
1246.92	198754
1249.82	199363
1252.71	199582
1255.6	200507
1258.49	201938
1261.39	203086
1264.28	203242
1267.17	203750
1270.07	204511
1272.96	204941
1275.85	205253
1278.74	206272
1281.64	207096
1284.53	207485
1287.42	207894
1290.31	208522
1293.21	209242
1296.1	210088
1298.99	210470
1301.88	212113
