Measurement: Raman, 780 nm, unoriented, Raman Data Processed
Mineral: Xenotime-(Y)
Rruff sample: R050178
Ideal chemistry: Y^3+^PO_4_
Locality: Novo Horizonte, Bahia, Brazil
Source: Marcus Origlieri
Description: Brown crystal fragments
Measured chemistry: (Y_0.74_Dy_0.09_Gd_0.06_Er_0.04_Yb_0.02_Ho_0.01_Tb_0.01_Sm_0.01_Eu_0.01_)_Σ=1.00_(P_0.97_As_0.02_Si_0.01_)_Σ=1.00_O_4_
Raman shift (cm-1)	intensity
111.286	0
114.179	123.328
117.072	100.047
119.964	1334.69
122.857	3862.2
125.75	7749.27
128.642	12783.6
131.535	18839.7
134.428	26067.9
137.321	34711.9
140.213	44428.3
143.106	54655.5
145.999	65386
148.891	77053.4
151.784	88764.4
154.677	100720
157.569	112068
160.462	125511
163.355	135612
166.248	140615
169.14	141338
172.033	137374
174.926	128566
177.818	116425
180.711	100806
183.604	84381.3
186.496	66730.8
189.389	51078.8
192.282	36819.1
195.174	24098.5
198.067	13861
200.96	5761.44
203.853	147.5
206.745	3893.88
209.638	4822.42
212.531	4502
215.423	2435.67
218.316	1405.12
221.209	6834.31
224.101	13774.1
226.994	21987.8
229.887	31121.9
232.78	41345.8
235.672	51762.6
238.565	61947
241.458	71537.3
244.35	78963
247.243	84402.8
250.136	87768.7
253.029	88332.8
255.921	86102.4
258.814	82690.6
261.707	77079.2
264.599	70192.5
267.492	63346.8
270.385	57858.9
273.277	52586.8
276.17	50251.2
279.063	49399.4
281.955	50475.9
284.848	53518.7
287.741	57104.1
290.634	62453.5
293.526	67903
296.419	71816.9
299.312	75468.3
302.204	77730.9
305.097	79155.5
307.99	78762.2
310.882	78189.3
313.775	76731.4
316.668	75081.3
319.561	72338.4
322.453	68881.8
325.346	64325.6
328.239	58400
331.131	52466.9
334.024	45749.4
336.917	39464.8
339.809	33771.5
342.702	28600
345.595	23773.2
348.488	19412.8
351.38	15236.1
354.273	11326.7
357.166	7141.48
360.058	3545.16
362.951	1211.48
365.844	681.734
368.736	1942.05
371.629	2640.58
374.522	3410.02
377.415	3304.81
380.307	780.203
383.2	3179.27
386.093	7961.64
388.985	13558.2
391.878	19698.8
394.771	26262.5
397.663	33793.2
400.556	41713.8
403.449	49321.6
406.342	55660.4
409.234	60746.8
412.127	63506.8
415.02	64489.1
417.912	63845.2
420.805	62102.7
423.698	59820.8
426.59	56257.2
429.483	52364.3
432.376	49431.8
435.269	47256.4
438.161	44943.6
441.054	42463.9
443.947	39390.8
446.839	35526.2
449.732	31521.8
452.625	27413.4
455.517	23465.6
458.41	19664
461.303	16100.8
464.195	12761.3
467.088	9755.12
469.981	7498.12
472.874	5318.19
475.766	3396.31
478.659	1639.52
481.552	663.633
484.444	34.5859
487.337	758.625
490.23	1373.31
493.123	1614.81
496.015	1658.98
498.908	708.102
501.801	1162.77
504.693	3409.36
507.586	5984.28
510.479	8665.74
513.371	11642.4
516.264	14844.5
519.157	17936
522.049	20716
524.942	23021.1
527.835	24886.9
530.728	26122.9
533.62	27024
536.513	27186.7
539.406	27239
542.298	26596.7
545.191	25936
548.084	24840.6
550.976	24062.9
553.869	23141.7
556.762	22596.7
559.655	22967
562.547	23247.7
565.44	23994.4
568.333	24429.8
571.225	24866.1
574.118	25468.4
577.011	26049.6
579.904	26442.2
582.796	26253.7
585.689	26524.2
588.582	26747.5
591.474	26726.8
594.367	26404.8
597.26	25533.9
600.152	24830.7
603.045	23779
605.938	22525
608.83	21019.7
611.723	19649.6
614.616	17913.3
617.509	16270
620.401	14574
623.294	13054.7
626.187	11529.9
629.079	9945.36
631.972	8503.13
634.865	7079.15
637.757	5768.38
640.65	4750.93
643.543	3726.85
646.436	2666.07
649.328	1896.25
652.221	1207.49
655.114	710.84
658.006	302.551
660.899	125.09
663.792	428.789
666.684	632.82
669.577	569.797
672.47	639.959
675.362	533.346
678.255	462.559
681.148	397.373
684.041	209.516
686.933	59.5645
689.826	224.742
692.719	387.83
695.611	763.404
698.504	1113.58
701.397	1315.05
704.29	1643.94
707.182	1896.07
710.075	2356.18
712.968	2506.85
715.86	2722.83
718.753	2887.73
721.646	3128.85
724.538	3160.45
727.431	3091.7
730.324	3035.92
733.216	2950.47
736.109	2793.55
739.002	2605.45
741.895	2422.09
744.787	2257.11
747.68	2066.75
750.573	1903.4
753.465	1815.65
756.358	1672.42
759.251	1649.14
762.144	1512.16
765.036	1454.23
767.929	1378.1
770.822	1258.57
773.714	1242.7
776.607	1170.28
779.5	1082.59
782.392	985.762
785.285	891.415
788.178	743.687
791.071	797.664
793.963	658.172
796.856	600.407
799.749	558.341
802.641	468.679
805.534	447.582
808.427	416.374
811.319	330.41
814.212	291.26
817.105	218.543
819.997	203.655
822.89	214.293
825.783	168.446
828.676	146.339
831.568	62.542
834.461	90.4238
837.354	35.8047
840.246	17.0391
843.139	8.8252
846.032	39.294
848.924	5.66797
851.817	12.7412
854.71	12.4111
857.603	5.41943
860.495	15.1387
863.388	31.3921
866.281	54.3447
869.173	54.5523
872.066	33.8018
874.959	5.50537
877.851	20.5127
880.744	175.882
883.637	124.749
886.529	96.4204
889.422	45.9092
892.315	67.0195
895.208	115.168
898.1	150.643
900.993	186.106
903.886	212.656
906.778	253.524
909.671	266.409
912.564	245.467
915.457	100.71
918.349	93.8091
921.242	20.6807
924.135	24.9395
927.027	28.9834
929.92	2.52881
932.813	16.8818
935.705	6.09473
938.598	7.37451
941.491	36.2004
944.384	20.4656
947.276	4.28638
950.169	50.3689
953.062	44.9009
955.954	51.5571
958.847	86.8501
961.74	52.0947
964.632	97.654
967.525	117.644
970.418	177.931
973.311	179.8
976.203	309.523
979.096	545.167
981.989	936.066
984.881	1703.49
987.774	2236.33
990.667	3176.62
993.559	4891.22
996.452	8938.2
999.345	7210.7
1002.24	1928.17
1005.13	641.938
1008.02	336.025
1010.92	273.28
1013.81	297.547
1016.7	425.75
1019.59	749.615
1022.49	1045.6
1025.38	564.296
1028.27	154.168
1031.16	6.70142
1034.06	79.0737
1036.95	33.2214
1039.84	42.0652
1042.73	233.407
1045.63	460.23
1048.52	756.69
1051.41	1356.31
1054.31	2488.45
1057.2	2090.26
1060.09	817.194
1062.98	335.697
1065.88	181.387
1068.77	106.177
1071.66	61.7422
1074.56	78.3516
1077.45	58.7842
1080.34	72.4448
1083.23	88.0081
1086.13	92.3313
1089.02	127.298
1091.91	120.079
1094.8	104.548
1097.7	95.6682
1100.59	151.54
1103.48	130.398
1106.38	162.719
1109.27	156.296
1112.16	177.053
1115.05	156.185
1117.94	150.41
1120.84	169.008
1123.73	132.412
1126.62	100.144
1129.52	105.017
1132.41	101.681
1135.3	132.887
1138.19	111.819
1141.09	150.499
1143.98	166.129
1146.87	212.881
1149.77	208.693
1152.66	242.864
1155.55	262.757
1158.44	288.47
1161.34	297.902
1164.23	300.957
1167.12	335.027
1170.01	339.18
1172.91	364.392
1175.8	354.107
1178.69	344.857
1181.59	330.01
1184.48	329.688
1187.37	246.42
1190.26	190.599
1193.16	102.016
1196.05	38.2456
1198.94	8.13477
1201.83	26.7549
1204.73	39.1465
1207.62	17.3208
1210.51	23.4526
1213.4	72.7874
1216.3	101.174
1219.19	196.896
1222.08	270.897
1224.97	330.828
1227.87	435.911
1230.76	438.125
1233.65	398.662
1236.55	431.929
1239.44	431.531
1242.33	308.927
1245.22	246.096
1248.12	242.935
1251.01	186.804
1253.9	95.8037
1256.8	2.35547
