Measurement: Raman, 780 nm, unoriented, Raman Data Processed
Mineral: Xenotime-(Y)
Rruff sample: R120080
Ideal chemistry: Y^3+^PO_4_
Locality: Clora May mine, Chaffee County, Colorado, USA
Source: Rudy Bolona
Description: Yellow-brown massive
Raman shift (cm-1)	intensity
101.246	0
104.621	91.0898
107.996	13.044
111.37	32.3272
114.745	118.435
118.12	311.385
121.495	514.654
124.87	752.006
128.244	1073
131.619	1368.06
134.994	1679.62
138.369	1951.08
141.744	2157.67
145.119	2461.04
148.493	3106.74
151.868	3950.45
155.243	4105.25
158.618	4189.7
161.993	4207.65
165.367	4155.51
168.742	3958.62
172.117	3471.73
175.492	2872.72
178.867	2195.22
182.242	1393.5
185.616	713.09
188.991	104.978
192.366	316.926
195.741	563.471
199.115	613.504
202.49	434.648
205.865	0.058594
209.24	660.701
212.615	1538.43
215.99	2736.68
219.364	4140.48
222.739	5785.77
226.114	7563.84
229.489	9378.99
232.864	11325.4
236.238	13175.5
239.613	14750.7
242.988	15977.9
246.363	16690.5
249.738	16586.2
253.113	15760.8
256.487	14420.8
259.862	12848.6
263.237	11258
266.612	9746.1
269.987	8499.92
273.361	7319.88
276.736	6657.86
280.111	6321.17
283.486	6304.56
286.861	6529.92
290.236	7132.05
293.61	7730.98
296.985	8480.89
300.36	8918.02
303.735	9451.67
307.11	9776.18
310.485	9862.14
313.859	9768.43
317.234	9492.15
320.609	8983.49
323.984	8363.82
327.359	7658.6
330.733	6978.83
334.108	5972.45
337.483	5197.31
340.858	4274.92
344.233	3601.97
347.608	2986.84
350.982	2482.47
354.357	2049.83
357.732	1594.32
361.107	1102.02
364.482	671.547
367.856	302.043
371.231	81.7207
374.606	262.102
377.981	450.965
381.356	456.232
384.731	312.31
388.105	171.678
391.48	56.4512
394.855	363.24
398.23	671.861
401.605	920.769
404.979	1240.55
408.354	1356.52
411.729	1489.89
415.104	1450.59
418.479	1397.38
421.853	1388.16
425.228	1297.88
428.603	1223.25
431.978	1239.36
435.353	1123.29
438.728	1004.11
442.102	807.168
445.477	609.922
448.852	484.873
452.227	331.836
455.602	259.113
458.976	189.752
462.351	92.6426
465.726	3.61719
469.101	22.0312
472.476	43.5137
475.851	11.1543
479.225	19.1006
482.6	0.491211
485.975	11.5752
489.35	43.0098
492.725	49.1289
496.099	17.0049
499.474	87.9189
502.849	183.769
506.224	343.841
509.599	470.252
512.973	664.932
516.348	819.386
519.723	854.263
523.098	887.584
526.473	874.695
529.848	891.902
533.222	876.519
536.597	958.562
539.972	1016.32
543.347	1116.88
546.722	1279.65
550.096	1461.23
553.471	1665.85
556.846	1918.8
560.221	2149.98
563.596	2378.86
566.971	2582.95
570.345	2770.3
573.72	3019.27
577.095	3167.98
580.47	3284.37
583.845	3322.49
587.22	3408.42
590.594	3428.85
593.969	3398.12
597.344	3336.11
600.719	3208.92
604.094	3004.46
607.468	2806.6
610.843	2588.28
614.218	2305.62
617.593	2037.6
620.968	1775.8
624.342	1518.38
627.717	1259.79
631.092	1036.69
634.467	823.186
637.842	643.947
641.217	484.766
644.591	328.683
647.966	252.164
651.341	139.406
654.716	65.1103
658.091	42.4312
661.466	26.8125
664.84	79.2061
668.215	56.2573
671.59	84.0273
674.965	65.9912
678.34	36.2202
681.714	25.3545
685.089	26.6675
688.464	66.6514
691.839	111.727
695.214	153.554
698.588	172.657
701.963	248.315
705.338	278.061
708.713	336.495
712.088	363.193
715.462	402.899
718.837	407.148
722.212	408.507
725.587	416.533
728.962	430.323
732.337	394.761
735.711	357.238
739.086	325.483
742.461	304.64
745.836	311.643
749.211	288.623
752.586	279.582
755.96	273.15
759.335	283.588
762.71	272.842
766.085	305.601
769.46	298.103
772.834	299.58
776.209	303.821
779.584	281.828
782.959	283.115
786.334	243.162
789.708	235.045
793.083	209.707
796.458	197.642
799.833	155.393
803.208	116.756
806.583	113.236
809.957	95.8414
813.332	72.8682
816.707	57.3522
820.082	46.3458
823.457	25.1511
826.832	24.1243
830.206	15.9178
833.581	10.286
836.956	9.65564
840.331	12.4477
843.706	11.4386
847.08	2.62256
850.455	1.47791
853.83	3.42871
857.205	2.9491
860.58	8.81201
863.955	12.1188
867.329	19.4204
870.704	28.5327
874.079	13.682
877.454	18.7183
880.829	26.6251
884.203	28.2969
887.578	28.3114
890.953	38.9784
894.328	22.5662
897.703	28.6311
901.077	37.4296
904.452	29.9156
907.827	24.7457
911.202	21.8838
914.577	22.4912
917.952	15.7426
921.326	6.93365
924.701	7.70282
928.076	0.64447
931.451	2.87292
934.826	1.30554
938.2	0.684631
941.575	7.7699
944.95	0.472107
948.325	0.052673
951.7	2.12176
955.074	3.85327
958.449	7.86359
961.824	13.7652
965.199	5.38647
968.574	22.9703
971.949	14.9772
975.323	18.3276
978.698	31.5233
982.073	75.657
985.448	153.871
988.823	257.321
992.197	403.331
995.572	765.411
998.947	1042.67
1002.32	380.757
1005.7	95.4075
1009.07	33.8005
1012.45	26.611
1015.82	27.3258
1019.2	44.4647
1022.57	76.5133
1025.95	76.984
1029.32	18.46
1032.69	6.24207
1036.07	10.1547
1039.44	9.64539
1042.82	37.9996
1046.19	98.4837
1049.57	190.981
1052.94	354.365
1056.32	552.771
1059.69	319.844
1063.07	117.263
1066.44	75.1891
1069.82	45.7787
1073.19	46.6647
1076.57	41.0543
1079.94	43.7848
1083.32	51.1461
1086.69	45.9314
1090.07	61.8903
1093.44	71.9257
1096.82	65.5958
1100.19	69.9372
1103.57	76.7092
1106.94	82.4266
1110.32	65.6772
1113.69	57.9609
1117.07	56.1405
1120.44	37.3943
1123.82	25.2763
1127.19	16.5278
1130.57	13.1647
1133.94	10.6148
1137.32	3.8847
1140.69	2.42108
1144.06	3.01666
1147.44	11.6203
1150.81	3.47498
1154.19	5.40735
1157.56	16.475
1160.94	28.1024
1164.31	36.8023
1167.69	58.7199
1171.06	69.7501
1174.44	75.3583
1177.81	101.133
1181.19	90.3264
1184.56	114.641
1187.94	97.7495
1191.31	94.3827
1194.69	61.1
1198.06	53.6807
1201.44	26.5936
1204.81	17.1433
1208.19	1.94922
1211.56	2.90149
1214.93	9.12781
1218.31	4.0199
1221.68	12.5415
1225.06	13.6422
1228.43	39.715
1231.81	67.9028
1235.18	116.072
1238.56	114.363
1241.93	123.089
1245.31	138.519
1248.68	106.889
1252.06	81.0181
1255.43	42.2685
1258.81	26.8787
1262.18	28.875
1265.56	19.4336
1268.93	15.6221
1272.31	3.13647
1275.68	22.2378
1279.06	21.4451
1282.43	15.8745
