Measurement: Raman, 785 nm, unoriented, Raman Data RAW
Mineral: Xenotime-(Y)
Rruff sample: R060428
Ideal chemistry: Y^3+^PO_4_
Locality: Zagi Mountain, near Hammedabad, Khaffor Dehri, North-West Frontier Province, Pakistan
Source: Herb Obodda
Description: Brown prismatic crystals
Measured chemistry: (Y_0.85_Dy_0.11_Yb_0.04_)_Î£=1_P_1.00_O_4_
Raman shift (cm-1)	intensity
140.812	0
143.705	212.823
146.598	2557.75
149.49	5489.55
152.383	5634.1
155.276	4268.87
158.168	3552.03
161.061	5577.37
163.954	10350.3
166.846	15837.3
169.739	20033.4
172.632	21312.5
175.525	20527.2
178.417	18701
181.31	16573
184.203	14413.9
187.095	11881.5
189.988	9462.55
192.881	7068.66
195.773	5380.51
198.666	4212.49
201.559	3100.16
204.452	2032.59
207.344	1805.35
210.237	2198.31
213.13	3270.37
216.022	5268.57
218.915	7836.39
221.808	9708.74
224.7	11376.4
227.593	12155.5
230.486	12566
233.378	12363.5
236.271	12173.9
239.164	11872.9
242.057	11776.8
244.949	11442.4
247.842	10751.4
250.735	10062.5
253.627	9005.66
256.52	8095.23
259.413	6867.79
262.306	5429.11
265.198	4112.55
268.091	2904.93
270.984	1630.51
273.876	670.934
276.769	22.841
279.662	95.653
282.555	26.51
285.447	117.553
288.34	219.614
291.233	208.746
294.125	134.522
297.018	843.824
299.911	352.607
302.803	367.73
305.696	338.301
308.589	256.142
311.482	201.711
314.374	76.527
317.267	115.151
320.16	1097.16
323.052	2636.33
325.945	4414.27
328.838	6151.85
331.73	7458.02
334.623	8060.91
337.516	7770.2
340.409	7303.93
343.301	6578.6
346.194	6224.96
349.087	5940.53
351.979	5981.55
354.872	5700.94
357.765	5450.38
360.657	5079.37
363.55	4887.12
366.443	4564.58
369.336	4338.32
372.228	4107.5
375.121	3702.32
378.014	3366.27
380.906	2929.06
383.799	2262.07
386.692	1731.19
389.584	1317.35
392.477	1219.45
395.37	1095.51
398.263	1058.95
401.155	830.506
404.048	525.462
406.941	323.645
409.833	18.932
412.726	115.082
415.619	113.861
418.512	44.92
421.404	67.192
424.297	109.272
427.19	363.88
430.082	5.552
432.975	456.456
435.868	1088.59
438.76	1802.69
441.653	2588.99
444.546	3260.82
447.439	3775.88
450.331	4140.52
453.224	4221.63
456.117	4379.16
459.009	4402.58
461.902	4636.34
464.795	4668.43
467.687	4825.62
470.58	4919.95
473.473	4908.9
476.366	5173.01
479.258	5498.05
482.151	5779.5
485.044	6058.2
487.936	6384.49
490.829	6531.32
493.722	6746.81
496.614	6708.02
499.507	6707.83
502.4	6759.38
505.293	6886.32
508.185	7069.37
511.078	7123.78
513.971	7305.59
516.863	7284.75
519.756	7058.86
522.649	6794.76
525.541	6460.49
528.434	5963.67
531.327	5425.02
534.219	5002.07
537.112	4389.63
540.005	3846.75
542.898	3298.68
545.79	2757.23
548.683	2233.89
551.576	1773.03
554.469	1398.22
557.361	1086.98
560.254	833.182
563.147	493.337
566.039	304.132
568.932	91.674
571.825	28.824
574.717	110.431
577.61	12.832
580.503	58.634
583.396	266.871
586.288	120.983
589.181	55.772
592.074	48.786
594.966	50.249
597.859	30.462
600.752	82.457
603.644	43.25
606.537	76.334
609.43	48.152
612.323	70.332
615.215	134.638
618.108	240.837
621.001	358.02
623.893	427.771
626.786	555.004
629.679	659.001
632.571	680.152
635.464	810.274
638.357	841.142
641.25	821.785
644.142	834.517
647.035	882.773
649.928	826.508
652.82	876.417
655.713	849.508
658.606	889.963
661.498	759.459
664.391	672.45
667.284	569.668
670.177	491.726
673.069	489.321
675.962	466.675
678.855	446.742
681.747	434.95
684.64	434.459
687.533	435.723
690.425	411.021
693.318	456.811
696.211	462.038
699.104	473.521
701.996	456.212
704.889	492.443
707.782	426.269
710.674	404.804
713.567	369.795
716.46	344.425
719.352	318.766
722.245	257.173
725.138	254.604
728.031	186.428
730.923	150.16
733.816	130.295
736.709	104.293
739.601	51.729
742.494	45.523
745.387	52.728
748.279	15.668
751.172	19.74
754.065	11.954
756.958	8.113
759.85	8.24
762.743	25.032
765.636	21.789
768.528	17.257
771.421	2.218
774.314	7.375
777.206	3.129
780.099	10.598
782.992	5.192
785.885	12.237
788.777	15.845
791.67	57.718
794.563	21.358
797.456	42.046
800.348	21.514
803.241	54.313
806.134	70.078
809.026	60.951
811.919	49.861
814.812	84.55
817.704	70.501
820.597	56.477
823.49	54.526
826.383	40.509
829.275	47.539
832.168	41.603
835.061	45.91
837.953	23.254
840.846	3.975
843.739	3.018
846.631	3.796
849.524	14.714
852.417	41.28
855.31	32.824
858.202	28.25
861.095	34.673
863.988	40.738
866.88	26.535
869.773	55.605
872.666	120.455
875.558	43.423
878.451	41.361
881.344	66.238
884.237	73.611
887.129	51.527
890.022	55.375
892.915	73.291
895.807	52.995
898.7	59.163
901.593	48.357
904.485	33.918
907.378	57.29
910.271	38.002
913.164	27.578
916.056	29.232
918.949	5.863
921.842	11.396
924.734	28.674
927.627	1.835
930.52	11.953
933.412	12.235
936.305	8.831
939.198	2.993
942.091	3.48
944.983	2.118
947.876	3.136
950.769	5.518
953.661	0.746
956.554	1.907
959.447	11.808
962.339	8.491
965.232	3.338
968.125	18.743
971.018	26.479
973.91	43.153
976.803	67.631
979.696	63.893
982.588	117.537
985.481	168.08
988.374	273.552
991.266	504.347
994.159	1385.48
997.052	2974.78
999.945	4555.5
1002.84	972.272
1005.73	283.307
1008.62	158.669
1011.51	138.098
1014.41	146.909
1017.3	240.164
1020.19	478.871
1023.09	753.383
1025.98	472.976
1028.87	224.574
1031.76	144.207
1034.66	92.104
1037.55	94.73
1040.44	63.831
1043.34	74.955
1046.23	100.822
1049.12	237.97
1052.01	685.416
1054.91	1535.74
1057.8	1697.83
1060.69	523.64
1063.58	160.928
1066.48	46.638
1069.37	0.856
1072.26	3.77
1075.15	4.596
1078.05	6.334
1080.94	7.731
1083.83	9.668
1086.73	15.893
1089.62	50.847
1092.51	80.624
1095.4	81.901
1098.3	95.395
1101.19	100.388
1104.08	86.745
1106.97	97.759
1109.87	110.27
1112.76	68.909
1115.65	88.544
1118.55	74.24
1121.44	69.292
1124.33	52.895
1127.22	58.167
1130.12	33.743
1133.01	3.533
1135.9	2.018
1138.79	1.498
1141.69	2.551
1144.58	2.863
1147.47	27.979
1150.37	54.443
1153.26	98.469
1156.15	80.086
1159.04	92.113
1161.94	112.279
1164.83	105.799
1167.72	56.311
1170.61	60.551
1173.51	71.686
1176.4	61.307
1179.29	67.651
1182.18	83.934
1185.08	80.962
1187.97	45.04
1190.86	71.026
1193.76	0
