Measurement: Raman, 514 nm, unoriented, Raman Data Processed
Mineral: Xenotime-(Y)
Rruff sample: R050178
Ideal chemistry: Y^3+^PO_4_
Locality: Novo Horizonte, Bahia, Brazil
Source: Marcus Origlieri
Description: Brown crystal fragments
Measured chemistry: (Y_0.74_Dy_0.09_Gd_0.06_Er_0.04_Yb_0.02_Ho_0.01_Tb_0.01_Sm_0.01_Eu_0.01_)_Σ=1.00_(P_0.97_As_0.02_Si_0.01_)_Σ=1.00_O_4_
Raman shift (cm-1)	intensity
52.866	0
57.065	51.935
61.262	7.817
65.458	79.421
69.651	76.378
73.842	339.904
78.031	687.792
82.218	547.678
86.404	401.455
90.587	549.871
94.768	387.841
98.947	297.017
103.124	336.614
107.3	354.853
111.473	249.604
115.644	393.069
119.813	318.315
123.981	237.514
128.146	211.715
132.309	135.758
136.47	184.864
140.63	161.688
144.787	128.123
148.942	199.261
153.096	181.123
157.247	26.712
161.396	68.016
165.544	21.031
169.689	231.75
173.833	375.121
177.974	109.127
182.114	82.2
186.251	90.829
190.387	113.741
194.52	71.952
198.652	9.405
202.782	93.755
206.909	151.75
211.035	255.436
215.159	476.948
219.281	1138.85
223.4	2109.01
227.518	2546.24
231.634	1814.1
235.748	1425.71
239.86	1954.99
243.97	2613.87
248.079	2161.3
252.185	1949.28
256.289	2306.68
260.391	2311.5
264.492	1601.76
268.59	1243.48
272.687	1517.68
276.781	2298.31
280.874	2776.45
284.964	2308.74
289.053	2383.75
293.14	2825.11
297.225	2008.13
301.308	1140.81
305.389	811.171
309.468	756.195
313.545	787.879
317.62	1021.26
321.693	1506.33
325.765	2425.77
329.834	4428.06
333.902	6626.04
337.967	7449.58
342.031	6091.69
346.093	4616.66
350.153	4064.11
354.21	3910.03
358.267	3662.83
362.321	3165.93
366.373	2944.43
370.423	2749.51
374.471	2113.16
378.518	2008.16
382.563	2412.17
386.605	3130.59
390.646	3316.64
394.685	2640.31
398.722	1698.59
402.757	1038.47
406.79	603.956
410.821	436.037
414.851	333.711
418.878	236.975
422.904	230.822
426.927	358.245
430.949	424.243
434.969	656.812
438.987	929.954
443.003	1243.66
447.018	1778.93
451.03	1913.03
455.041	1666.01
459.049	1306.55
463.056	1063.43
467.061	1124.49
471.064	1229.06
475.065	1646.28
479.064	2233.51
483.062	2775.99
487.057	2433.58
491.051	1497.53
495.043	938.188
499.032	452.555
503.02	198.591
507.007	73.31
510.991	19.865
514.973	13.774
518.954	48.331
522.933	115.092
526.91	205.666
530.885	307.482
534.858	308.95
538.829	311.32
542.799	312.068
546.766	298.047
550.732	318.287
554.696	321.067
558.658	383.303
562.618	422.722
566.576	462.651
570.533	543.35
574.488	850.655
578.44	1302.07
582.391	526.435
586.341	327.964
590.288	227.786
594.233	167.245
598.177	96.999
602.119	46.481
606.059	25.137
609.997	22.728
613.933	41.399
617.868	84.068
621.801	111.078
625.731	18.448
629.66	49.881
633.588	123.564
637.513	62.624
641.437	39.977
645.358	17.714
649.278	157.198
653.196	569.783
657.113	889.529
661.027	355.58
664.94	204.307
668.851	170.436
672.76	188.744
676.667	231.133
680.572	247.408
684.476	235.161
688.378	278.5
692.278	313.668
696.176	307.011
700.072	391.097
703.967	426.159
707.86	476.073
711.751	402.305
715.64	581.256
719.527	515.994
723.413	507.806
727.297	551.997
731.179	549.591
735.059	592.124
738.937	681.777
742.814	661.382
746.689	663.087
750.562	632.374
754.433	681.37
758.303	699.537
762.17	619.735
766.036	582.418
769.901	662.735
773.763	687.784
777.624	682.911
781.482	668.369
785.339	705.298
789.195	761.248
793.048	746.251
796.9	806.844
800.75	822.645
804.598	945.78
808.445	995.998
812.289	1194.17
816.132	1250.67
819.973	1268.58
823.813	1246.39
827.65	1210
831.486	1232.54
835.32	1183.02
839.152	1147.32
842.983	1087.69
846.812	1101.02
850.639	1200.76
854.464	1147.01
858.288	1197.34
862.11	1086.96
865.93	1098.3
869.748	1057.26
873.564	1032.31
877.379	979.25
881.192	865.152
885.004	780.717
888.813	754.78
892.621	689.305
896.427	509.931
900.232	584.511
904.034	661.358
907.835	850.847
911.634	715.68
915.432	419.576
919.227	228.134
923.021	99.979
926.813	90.873
930.604	181.028
934.393	230.42
938.18	357.695
941.965	348.006
945.749	435.958
949.53	516.357
953.311	539.882
957.089	512.524
960.866	493.798
964.641	453.901
968.414	336.161
972.185	194.729
975.955	79.171
979.723	443.504
983.49	1046.25
987.254	1749.72
991.017	3688.35
994.779	11483.5
998.538	19998.5
1002.3	8736.23
1006.05	11822.6
1009.81	18851.1
1013.56	20914.4
1017.31	14771.8
1021.06	9860.65
1024.81	7083.9
1028.55	5013.73
1032.3	4791.15
1036.04	6200.61
1039.78	9710.52
1043.52	12588.8
1047.26	12293.3
1050.99	12891.8
1054.73	22841.8
1058.46	24640.4
1062.19	36467.9
1065.92	35619.2
1069.65	19880.5
1073.37	10155.5
1077.1	5685.04
1080.82	3767.95
1084.54	3030.34
1088.26	3700.33
1091.97	6586.45
1095.69	11530
1099.4	9635.51
1103.12	8812.11
1106.83	12689.3
1110.54	23125.7
1114.24	35293.2
1117.95	35332.1
1121.65	25304.6
1125.35	18222.6
1129.06	13305.6
1132.75	11548.8
1136.45	11650
1140.15	14076.5
1143.84	19588.2
1147.53	27475.5
1151.22	36219.1
1154.91	44132.3
1158.6	44746
1162.28	36876.3
1165.97	27434.2
1169.65	19824.8
1173.33	15087
1177.01	11501.9
1180.69	8217.61
1184.36	5720.16
1188.04	3804.62
1191.71	3161.98
1195.38	3721.3
1199.05	5007.56
1202.71	8356.62
1206.38	11367.4
1210.04	11991.8
1213.71	10643.8
1217.37	8557.75
1221.03	8289.74
1224.68	9786.98
1228.34	12984.7
1231.99	18612.6
1235.65	24568.3
1239.3	29435.3
1242.95	32404.2
1246.59	33012.4
1250.24	31350.8
1253.88	28345.2
1257.53	23324.1
1261.17	19175.8
1264.81	15314.4
1268.45	12917.1
1272.08	11874.7
1275.72	11693.4
1279.35	12790.9
1282.98	14852.2
1286.61	17614.5
1290.24	19661.7
1293.87	21819.9
1297.49	22738
1301.11	25043.7
1304.73	25340.8
1308.36	23462.6
1311.97	19310.4
1315.59	16384
1319.2	13324.3
1322.82	11077.8
1326.43	9855.36
1330.04	8909
1333.65	7889.62
1337.26	6492.89
1340.86	5273.3
1344.47	3823.53
1348.07	3201.28
1351.67	2496.09
1355.27	2027.27
1358.87	1579.88
1362.46	1008.02
1366.06	790.468
1369.65	599.237
1373.24	160.727
1376.83	150.921
1380.42	284.142
1384	302.791
1387.59	559.607
1391.17	576.188
1394.75	359.556
1398.33	428.418
1401.91	259.525
1405.49	191.127
1409.06	120.649
1412.64	47.572
1416.21	8.664
1419.78	0.281
1423.35	19.532
1426.91	21.844
1430.48	103.147
1434.05	85.833
1437.61	216.313
1441.17	225.953
1444.73	348.256
1448.29	425.882
1451.84	493.794
1455.4	588.184
1458.95	543.673
1462.5	416.738
1466.05	405.39
1469.6	343.576
1473.15	512.671
1476.69	582.297
1480.24	622.795
1483.78	694.031
1487.32	700.852
1490.86	597.79
1494.39	530.541
1497.93	489.679
1501.46	467.745
1505	286.565
1508.53	350.745
1512.06	316.183
1515.59	110.981
1519.11	86.874
1522.64	0
