Measurement: Raman, 780 nm, unoriented, Raman Data Processed
Mineral: Xocomecatlite
Rruff sample: R070738
Ideal chemistry: Cu^2+^_3_Te^6+^O_4_(OH)_4_
Locality: Bambollita mine (Oriental mine), Moctezuma, Municipio de Moctezuma, Sonora, Mexico
Source: Michael Scott
Description: Green spherules
Raman shift (cm-1)	intensity
117.113	0
119.523	29.1738
121.934	65.666
124.345	21.5586
126.755	2.74609
129.166	65.7852
131.576	104.897
133.987	111.336
136.398	7.89453
138.808	85.0859
141.219	0.248047
143.629	122.641
146.04	48.8164
148.45	64.5527
150.861	157.035
153.272	137.18
155.682	196.621
158.093	185.654
160.503	116.783
162.914	197.519
165.325	147.951
167.735	106.43
170.146	93.3516
172.556	85.5547
174.967	73.9922
177.377	4.67578
179.788	65.7051
182.199	83.3086
184.609	41.9805
187.02	105.494
189.43	33.4082
191.841	99.5332
194.251	111.699
196.662	125.723
199.073	97.8711
201.483	180.127
203.894	119.301
206.304	113.096
208.715	122.014
211.126	99.791
213.536	164.006
215.947	42.3066
218.357	73.9356
220.768	78.0352
223.179	101.635
225.589	70.2246
228	165.863
230.41	126.871
232.821	56.9922
235.231	111.398
237.642	8.20117
240.053	96.5664
242.463	110.916
244.874	38.3965
247.284	58.168
249.695	78.0781
252.106	74.5781
254.516	63.043
256.927	169.037
259.337	118.41
261.748	132.641
264.158	198.441
266.569	200.062
268.98	40.127
271.39	101.027
273.801	262.662
276.211	199.801
278.622	182.922
281.033	234.807
283.443	75.2207
285.854	61.2285
288.264	19.3438
290.675	81.3535
293.085	21.5293
295.496	135.916
297.907	54.4609
300.317	4.47266
302.728	144.055
305.138	62.3457
307.549	59.3555
309.959	30.7188
312.37	44.7383
314.781	91.6055
317.191	110.484
319.602	86.457
322.012	102.764
324.423	82.8379
326.834	128.16
329.244	131.07
331.655	159.074
334.065	173.242
336.476	80.8516
338.887	169.06
341.297	115.277
343.708	80.7383
346.118	190.682
348.529	135.838
350.939	138.897
353.35	132.363
355.761	157.06
358.171	158.666
360.582	151.629
362.992	110.406
365.403	87.4746
367.813	119.467
370.224	49.8086
372.635	70.0332
375.045	76.3574
377.456	1.50977
379.866	21.7305
382.277	8.23438
384.688	69.1445
387.098	24.7891
389.509	63.7578
391.919	58.6875
394.33	3.29492
396.74	174.1
399.151	130.641
401.562	13.9824
403.972	69.2637
406.383	116.894
408.793	121.199
411.204	165.977
413.615	167.871
416.025	187.055
418.436	35.1465
420.846	103.488
423.257	12.0605
425.668	140.481
428.078	156.894
430.489	98.9082
432.899	258.588
435.31	186.324
437.72	265.83
440.131	145.09
442.542	147.312
444.952	221.478
447.363	88.3711
449.773	172.647
452.184	109.711
454.594	129.293
457.005	96.2344
459.416	33.0723
461.826	122.203
464.237	62.5195
466.647	125.785
469.058	127.543
471.469	132.17
473.879	158.055
476.29	60.0879
478.7	24.123
481.111	200.922
483.522	83.1621
485.932	67.9961
488.343	115.043
490.753	59.7852
493.164	136.834
495.574	176.984
497.985	87.6094
500.396	227.357
502.806	221.387
505.217	167.527
507.627	157.041
510.038	227.432
512.448	100.49
514.859	165.004
517.27	162.568
519.68	58.4141
522.091	37.25
524.501	65.75
526.912	258.719
529.323	66.3223
531.733	127.318
534.144	23.8359
536.554	59.5137
538.965	161.041
541.375	75.7695
543.786	86.1582
546.197	133.356
548.607	84.957
551.018	8.11523
553.428	50.3359
555.839	2.57812
558.25	140.559
560.66	144.539
563.071	26.707
565.481	131.041
567.892	44.6992
570.303	9.38086
572.713	123.486
575.124	97.9551
577.534	188.379
579.945	1.17578
582.355	168.107
584.766	165.65
587.177	20.1113
589.587	114.486
591.998	76.6738
594.408	120.482
596.819	127.34
599.23	199.1
601.64	199.727
604.051	47.873
606.461	170.578
608.872	87.0977
611.282	271.393
613.693	110.103
616.104	204.543
618.514	160.637
620.925	19.7734
623.335	147.486
625.746	71.668
628.157	98.6367
630.567	70.3496
632.978	55.3027
635.388	66.5371
637.799	75.8398
640.209	47.8203
642.62	87.1523
645.031	34.1152
647.441	98.2188
649.852	217.152
652.262	98.3731
654.673	105.334
657.083	132.914
659.494	177.69
661.905	62.8105
664.315	238.754
666.726	209.152
669.136	423.713
671.547	357.1
673.958	548.754
676.368	372.795
678.779	367.953
681.189	294.693
683.6	145.978
686.01	191.557
688.421	233.268
690.832	274.203
693.242	237.17
695.653	211.873
698.063	145.152
700.474	76.7734
702.885	160.18
705.295	219.574
707.706	213.416
710.116	200.738
712.527	269.273
714.938	290.191
717.348	108.254
719.759	292.916
722.169	224.469
724.58	198.428
726.99	78.5566
729.401	52.1777
731.812	141.332
734.222	45.4199
736.633	117.566
739.043	249.572
741.454	152.344
743.865	176.82
746.275	150.447
748.686	88.8731
751.096	10.2793
753.507	116.293
755.917	15.4414
758.328	197.838
760.739	151.894
763.149	2.63477
765.56	70.0859
767.97	84.4668
770.381	35.8965
772.792	9.13867
775.202	51.8965
777.613	10.7793
780.023	124.256
782.434	97.5195
784.844	174.754
787.255	133.15
789.666	170.613
792.076	113.812
794.487	32.5391
796.897	90.3027
799.308	180.182
801.718	100.166
804.129	26.3379
806.54	109.945
808.95	87.7481
811.361	212.215
813.771	42.3398
816.182	68.541
818.593	176.508
821.003	157.93
823.414	78.8926
825.824	184.066
828.235	141.488
830.645	133.037
833.056	157.527
835.467	170.691
837.877	117.744
840.288	69.6309
842.698	156.459
845.109	165.174
847.519	134.141
849.93	76.6875
852.341	219.603
854.751	92.9648
857.162	161.459
859.572	164.594
861.983	44.5996
864.394	31.0352
866.804	160.69
869.215	112.555
871.625	80.4473
874.036	175.363
876.447	55.6133
878.857	111.82
881.268	143.488
883.678	238.846
886.089	61.7988
888.5	32.8652
890.91	149.344
893.321	205.785
895.731	154.342
898.142	104.516
900.552	40.9492
902.963	69.5723
905.374	109.303
907.784	104.139
910.195	108.922
912.605	53.6973
915.016	132.9
917.427	96.7383
919.837	83.9824
922.248	111.34
924.658	130.75
927.069	116.269
929.479	217.221
931.89	104.693
934.301	235.699
936.711	182.002
939.122	140.285
941.532	225.147
943.943	133.531
946.354	78.2676
948.764	150.615
951.175	151.885
953.585	156.022
955.996	154.861
958.406	182.305
960.817	167.102
963.227	193.711
965.638	131.539
968.049	63.8008
970.459	79.6992
972.87	76.7695
975.28	64.4746
977.691	77.9668
980.102	9.30078
982.512	68.3555
984.923	111.035
987.333	8.5332
989.744	96.1953
992.154	30.2656
994.565	96.2129
996.976	104.658
999.386	45.2754
1001.8	87.2324
1004.21	162.932
1006.62	120.152
1009.03	225.164
1011.44	112.68
1013.85	112.602
1016.26	23.7695
1018.67	171.981
1021.08	81.625
1023.49	64.0469
1025.9	70.2031
1028.31	125.41
1030.72	87.0859
1033.13	7.29297
1035.55	112.172
1037.96	145.191
1040.37	111.231
1042.78	237.144
1045.19	185.574
1047.6	94.1523
