Measurement: Raman, 532 nm, unoriented, Raman Data Processed
Mineral: Yarrowite
Rruff sample: R060536
Ideal chemistry: Cu_9_S_8_
Locality: Yarrow Creek, southwestern Alberta, Canada
Source: Michael Scott
Description: Black metallic massive, amorphous
Raman shift (cm-1)	intensity
160.573	0
163.466	79.738
166.359	113.18
169.251	103.648
172.144	107.994
175.037	58.092
177.929	44.507
180.822	107.586
183.715	115.452
186.607	233.817
189.5	161.743
192.393	291.31
195.286	323.272
198.178	412.268
201.071	528.204
203.964	634.484
206.857	858.892
209.749	952.315
212.642	835.661
215.535	641.746
218.427	550.158
221.32	413.268
224.213	255.242
227.105	257.608
229.998	200.182
232.891	193.19
235.783	162.501
238.676	110.641
241.569	125.152
244.462	220.797
247.354	298.573
250.247	403.559
253.14	418.333
256.032	470.185
258.925	565.911
261.818	649.062
264.711	835.882
267.603	835.832
270.496	923.941
273.389	859.443
276.281	769.102
279.174	723.844
282.067	706.524
284.959	640.065
287.852	487.952
290.745	374.24
293.638	296.07
296.53	29.321
299.423	5.31
302.316	37.829
305.208	65.887
308.101	107.132
310.994	12.644
313.886	59.839
316.779	52.801
319.672	34.509
322.565	63.825
325.457	13.111
328.35	43.27
331.243	82.532
334.135	0.558
337.028	37.511
339.921	25.979
342.813	99.98
345.706	40.312
348.599	94.226
351.491	114.279
354.384	183.189
357.277	202.573
360.17	178.051
363.062	243.766
365.955	215.341
368.848	267.563
371.741	307.373
374.633	327.612
377.526	353.025
380.419	318.089
383.311	338.057
386.204	384.045
389.097	356.556
391.989	412.137
394.882	173.875
397.775	231.041
400.668	167.472
403.56	144.542
406.453	147.356
409.346	154.088
412.238	131.658
415.131	141.555
418.024	170.787
420.916	165.852
423.809	72.156
426.702	125.477
429.595	5.174
432.487	26.23
435.38	101.911
438.273	86.187
441.165	37.07
444.058	118.279
446.951	68.243
449.843	50.279
452.736	198.238
455.629	95.354
458.522	60.071
461.414	106.632
464.307	79.914
467.2	124.116
470.092	133.006
472.985	143.003
475.878	26.303
478.77	93.217
481.663	80.028
484.556	101.924
487.448	146.398
490.341	146.938
493.234	136.502
496.127	9.552
499.019	12.698
501.912	22.587
504.805	23.739
507.698	43.729
510.59	46.539
513.483	54.987
516.375	11.316
519.268	129.119
522.161	39.114
525.054	37.848
527.946	30.692
530.839	39.179
533.732	78.507
536.625	74.715
539.517	111.704
542.41	126.249
545.303	103.76
548.195	159.358
551.088	181.309
553.981	134.078
556.873	89.89
559.766	128.367
562.659	196.31
565.552	229.774
568.444	283.272
571.337	221.603
574.23	308.37
577.122	191.472
580.015	167.926
582.908	233.144
585.8	176.762
588.693	257.032
591.586	154.418
594.479	244.601
597.371	197.506
600.264	39.068
603.157	195.038
606.049	152.377
608.942	162.401
611.835	249.468
614.727	87.954
617.62	137.957
620.513	103.181
623.406	68.356
626.298	213.282
629.191	93.579
632.084	144.816
634.976	91.762
637.869	74.728
640.762	7.38
643.654	6.944
646.547	59.405
649.44	155.728
652.333	62.622
655.225	116.403
658.118	147.022
661.011	148.473
663.903	144.537
666.796	136.714
669.689	217.978
672.581	216.017
675.474	75.809
678.367	43.236
681.26	36.759
684.152	128.862
687.045	219.373
689.938	311.378
692.83	316.251
695.723	154.379
698.616	232.461
701.508	120.087
704.401	97.847
707.294	76.63
710.187	183.609
713.079	51.123
715.972	67.911
718.865	185.689
721.757	239.987
724.65	123.003
727.543	215.871
730.435	90.551
733.328	42.784
736.221	129.87
739.114	12.495
742.006	84.837
744.899	31.878
747.792	54.359
750.684	5.694
753.577	3.737
756.47	11.591
759.362	43.016
762.255	117.398
765.148	44.693
768.041	25.122
770.933	125.234
773.826	95.799
776.719	75.245
779.612	117.738
782.504	173.479
785.397	94.778
788.29	19.356
791.182	271.358
794.075	191.749
796.968	197.941
799.86	221.333
802.753	132.213
805.646	107.368
808.539	64.2
811.431	78.341
814.324	27.406
817.217	58.471
820.109	96.727
823.002	40.213
825.895	206.336
828.787	108.321
831.68	55.114
834.573	146.134
837.466	119.395
840.358	124.623
843.251	83.143
846.144	11.227
849.036	6.111
851.929	8.871
854.822	58.686
857.714	120.143
860.607	151.186
863.5	163.672
866.393	170.271
869.285	53.414
872.178	144.438
875.071	64.516
877.963	77.984
880.856	156.383
883.749	81.209
886.641	143.666
889.534	8.355
892.427	123.49
895.32	84.295
898.212	36.248
901.105	10.082
903.998	60.654
906.89	160.555
909.783	55.979
912.676	133.936
915.568	140.777
918.461	66.461
921.354	37.344
924.247	232.068
927.139	130.703
930.032	311.242
932.925	185.451
935.817	122.436
938.71	84.346
941.603	21.246
944.495	35.82
947.388	95.691
950.281	73.404
953.174	82.842
956.066	44.65
958.959	66.936
961.852	46.354
964.744	72.941
967.637	80.645
970.53	31.945
973.422	30.963
976.315	14.312
979.208	61.9
982.101	108.768
984.993	57.941
987.886	32.459
990.779	33.055
993.671	136.438
996.564	15.307
999.457	187.484
1002.35	130.662
1005.24	42.662
1008.13	65.234
1011.03	80.229
1013.92	107.324
1016.81	8.213
1019.71	88.936
1022.6	138.715
1025.49	243.477
1028.38	212.875
1031.28	73.158
1034.17	83.621
1037.06	136.309
1039.95	183.76
1042.85	68.869
1045.74	18.943
1048.63	68.98
1051.53	190.883
1054.42	122.561
1057.31	197.604
1060.2	162.238
1063.1	123.521
1065.99	91.512
1068.88	111.021
1071.77	132.326
1074.67	134.959
1077.56	110.084
1080.45	22.145
1083.35	75.631
1086.24	136.754
1089.13	152.277
1092.02	48.385
1094.92	87.857
1097.81	275.486
1100.7	259.77
1103.59	294.438
1106.49	133.723
1109.38	154.438
1112.27	149.145
1115.16	38.014
1118.06	38.48
1120.95	100.98
1123.84	117.635
1126.74	117.859
1129.63	189.723
1132.52	211.621
1135.41	137.311
1138.31	198.367
1141.2	241.658
1144.09	185.963
1146.98	157.881
1149.88	64.445
1152.77	114.447
1155.66	181.367
1158.56	175.516
1161.45	206.266
1164.34	218.689
1167.23	87.195
1170.13	43.197
1173.02	179.193
1175.91	148.908
1178.8	277.555
1181.7	189.637
1184.59	242.475
1187.48	195.023
1190.38	215.191
1193.27	208.248
1196.16	93.971
1199.05	128.967
1201.95	27.256
1204.84	136.154
1207.73	125.422
1210.62	215.344
1213.52	132.795
1216.41	166.582
1219.3	199.885
1222.19	6.502
1225.09	14.623
1227.98	34.674
1230.87	403.816
1233.77	217.002
1236.66	170.781
1239.55	181.932
1242.44	248.348
1245.34	66.123
1248.23	153.068
1251.12	24.564
1254.02	29.467
