Measurement: Raman, 780 nm, unoriented, Raman Data Processed
Mineral: Yingjiangite
Rruff sample: R070740
Ideal chemistry: K_2_Ca(U^6+^O_2_)_7_(PO_4_)_4_(OH)_6_6H_2_O
Locality: Kamaka Bar, Frazier River, Kamloops Mining Division, British Columbia, Canada
Source: Michael Scott
Description: Golden yellow massive embedded in epoxy
Raman shift (cm-1)	intensity
170.628	0
173.52	25.9624
176.413	18.4292
179.306	17.1123
182.199	2.6167
185.091	43.8628
187.984	79.3765
190.877	3.86572
193.769	38.6274
196.662	64.228
199.555	50.6494
202.447	67.7856
205.34	94.6977
208.233	160.086
211.126	174.465
214.018	176.24
216.911	218.754
219.804	245.528
222.696	237.257
225.589	258.089
228.482	286.17
231.375	297.509
234.267	275.686
237.16	281.902
240.053	273.998
242.945	276.101
245.838	198.119
248.731	236.655
251.623	169.501
254.516	191.685
257.409	201.593
260.301	159.383
263.194	93.6553
266.087	73.7705
268.98	58.0488
271.872	36.5708
274.765	50.5503
277.658	34.5625
280.55	28.3311
283.443	58.7935
286.336	52.1099
289.228	68.5772
292.121	58.1333
295.014	52.9204
297.907	44.6348
300.799	91.2466
303.692	90.4121
306.585	102.554
309.477	52.0005
312.37	109.763
315.263	108.068
318.156	46.6157
321.048	29.7983
323.941	5.61279
326.834	17.7705
329.726	30.8008
332.619	42.0552
335.512	3.51172
338.404	4.44482
341.297	4.45557
344.19	16.4551
347.082	12.9536
349.975	37.147
352.868	78.457
355.761	20.134
358.653	34.3208
361.546	50.9531
364.439	3.46167
367.331	39.2629
370.224	23.5339
373.117	1.96167
376.01	49.0391
378.902	15.4658
381.795	20.052
384.688	26.7925
387.58	1.06982
390.473	19.2285
393.366	88.4544
396.258	15.7644
399.151	54.2407
402.044	7.5896
404.937	11.4937
407.829	40.9353
410.722	63.9758
413.615	68.7556
416.507	38.4351
419.4	107.99
422.293	76.5134
425.185	92.6387
428.078	13.9639
430.971	23.5774
433.863	43.1208
436.756	27.2576
439.649	79.2141
442.542	39.4805
445.434	69.5293
448.327	41.5938
451.22	14.0413
454.112	3.77563
457.005	71.5881
459.898	34.1394
462.791	56.635
465.683	38.8909
468.576	93.3162
471.469	62.458
474.361	77.9463
477.254	53.3071
480.147	42.217
483.039	86.0305
485.932	65.22
488.825	63.0083
491.717	66.2773
494.61	11.3628
497.503	56.7827
500.396	33.9805
503.288	53.738
506.181	40.4043
509.074	23.3709
511.966	44.4875
514.859	36.7197
517.752	25.6326
520.644	19.5745
523.537	25.7297
526.43	28.7825
529.323	2.04492
532.215	16.3271
535.108	0.536133
538.001	34.4917
540.893	14.563
543.786	95.5806
546.679	121.149
549.572	97.7095
552.464	151.433
555.357	132.903
558.25	98.9544
561.142	100.415
564.035	103.49
566.928	42.9302
569.82	66.5417
572.713	14.7405
575.606	57.0418
578.499	31.5427
581.391	15.7009
584.284	30.2295
587.177	5.64429
590.069	17.4414
592.962	29.3325
595.855	36.904
598.747	27.116
601.64	2.6062
604.533	3.92212
607.426	12.7707
610.318	12.761
613.211	33.1038
616.104	38.4287
618.996	20.3779
621.889	20.9006
624.782	5.14307
627.674	38.8982
630.567	29.6116
633.46	15.7185
636.352	46.0354
639.245	45.7046
642.138	37.2356
645.031	45.927
647.923	38.1836
650.816	31.1255
653.709	34.3101
656.601	39.4126
659.494	24.6572
662.387	12.2124
665.279	4.17505
668.172	26.9416
671.065	14.7881
673.958	15.8589
676.85	37.1292
679.743	46.5715
682.636	58.6611
685.528	63.6951
688.421	62.9941
691.314	47.2925
694.207	82.4158
697.099	75.4316
699.992	66.8838
702.885	41.8257
705.777	46.2852
708.67	71.5764
711.563	69.6443
714.455	74.0913
717.348	44.971
720.241	50.1724
723.134	63.9048
726.026	65.2988
728.919	53.7954
731.812	77.958
734.704	35.7263
737.597	61.7432
740.49	38.4634
743.382	76.969
746.275	51.8132
749.168	55.2078
752.061	76.4753
754.953	39.2139
757.846	12.3462
760.739	35.5415
763.631	23.0906
766.524	25.4041
769.417	14.6924
772.309	59.5867
775.202	18.227
778.095	20.0666
780.987	41.8872
783.88	9.60718
786.773	38.3682
789.666	22.0203
792.558	2.33911
795.451	20.0715
798.344	26.4714
801.236	17.8574
804.129	1.8584
807.022	46.7507
809.914	51.606
812.807	11.1184
815.7	62.4524
818.593	32.3198
821.485	78.2295
824.378	75.8213
827.271	74.5584
830.163	59.3894
833.056	83.3574
835.949	54.9431
838.841	67.5325
841.734	96.5588
844.627	72.6201
847.519	56.6296
850.412	3.7832
853.305	47.2158
856.198	46.4519
859.09	0.741943
861.983	9.15747
864.876	50.5518
867.768	53.3227
870.661	86.2048
873.554	50.8059
876.447	40.8621
879.339	58.6875
882.232	20.1453
885.125	15.8498
888.017	25.8621
890.91	46.6958
893.803	49.3486
896.695	17.8403
899.588	34.5244
902.481	13.3364
905.374	30.2578
908.266	3.28638
911.159	46.9832
914.052	8.47534
916.944	59.1357
919.837	29.3811
922.73	3.19556
925.622	37.1003
928.515	17.113
931.408	64.4202
934.301	1.40967
937.193	82.0984
940.086	58.6331
942.979	32.8359
945.871	45.3188
948.764	51.0478
951.657	48.7026
954.549	53.4265
957.442	57.779
960.335	59.2556
963.227	14.1174
966.12	47.2844
969.013	17.5903
971.906	12.5776
974.798	44.7954
977.691	44.8743
980.584	54.6392
983.476	13.3181
986.369	22.5176
989.262	25.648
992.154	46.7852
995.047	24.9705
997.94	53.5212
1000.83	32.7927
1003.73	50.2312
1006.62	36.0991
1009.51	16.4334
1012.4	39.6184
1015.3	43.3513
1018.19	29.8469
1021.08	39.9231
1023.97	58.7527
1026.87	53.9358
1029.76	55.5386
1032.65	20.6204
1035.55	63.5915
1038.44	61.1211
1041.33	59.5862
1044.22	76.1096
1047.12	45.1204
1050.01	33.2134
1052.9	68.9114
1055.79	92.8872
1058.69	43.4207
1061.58	61.8691
1064.47	29.7808
1067.37	48.4307
1070.26	59.4622
1073.15	44.6108
1076.04	51.7048
1078.94	61.2795
1081.83	53.1719
1084.72	30.9324
1087.61	40.78
1090.51	52.9424
1093.4	15.803
1096.29	64.4624
1099.18	12.8801
1102.08	48.4021
1104.97	44.0283
1107.86	75.958
1110.76	42.595
1113.65	49.3774
1116.54	2.64844
1119.43	18.9849
1122.33	20.7356
1125.22	11.4502
1128.11	33.2185
1131	4.198
1133.9	35.2087
1136.79	33.4758
1139.68	29.5508
1142.58	1.02759
1145.47	55.4543
1148.36	40.3398
1151.25	60.6501
1154.15	44.9224
1157.04	35.823
1159.93	60.5891
1162.82	45.6702
1165.72	30.5142
1168.61	59.4624
1171.5	81.71
1174.39	47.5193
1177.29	44.395
1180.18	80.6716
1183.07	96.9419
1185.96	48.0386
1188.86	63.438
1191.75	28.8916
1194.64	74.4517
1197.54	29.939
1200.43	9.43994
1203.32	71.6868
1206.21	73.0713
1209.11	6.9375
1212	28.1711
1214.89	19.0664
1217.79	28.9263
1220.68	38.9126
1223.57	52.8701
1226.46	53.4976
1229.36	75.0518
1232.25	84.1455
1235.14	22.7988
1238.03	82.7964
1240.93	34.3428
1243.82	48.8911
1246.71	5.88721
1249.61	27.6948
1252.5	24.7427
1255.39	62.3008
1258.28	27.4517
1261.18	18.3706
1264.07	22.1968
1266.96	12.8516
