Measurement: Raman, 532 nm, unoriented, Raman Data Processed
Mineral: Yingjiangite
Rruff sample: R070740
Ideal chemistry: K_2_Ca(U^6+^O_2_)_7_(PO_4_)_4_(OH)_6_6H_2_O
Locality: Kamaka Bar, Frazier River, Kamloops Mining Division, British Columbia, Canada
Source: Michael Scott
Description: Golden yellow massive embedded in epoxy
Raman shift (cm-1)	intensity
172.196	0
175.089	19.1416
177.981	29.9233
180.874	4.91382
183.767	90.804
186.659	48.6191
189.552	107.335
192.445	69.1533
195.338	28.2248
198.23	51.645
201.123	73.4131
204.016	34.1797
206.908	54.6709
209.801	9.15161
212.694	71.8621
215.586	28.2966
218.479	2.77808
221.372	49.8064
224.264	84.9729
227.157	60.5408
230.05	78.9365
232.943	29.7537
235.835	126.856
238.728	48.4573
241.621	61.8743
244.513	61.7988
247.406	2.90234
250.299	29.3213
253.191	51.7842
256.084	45.2341
258.977	39.6167
261.87	36.978
264.762	20.7749
267.655	37.7895
270.548	84.626
273.44	1.6521
276.333	69.9312
279.226	21.7991
282.118	60.6125
285.011	15.1558
287.904	36.0745
290.796	29.7314
293.689	84.2844
296.582	22.0569
299.475	13.6577
302.367	38.5303
305.26	80.7947
308.153	63.7959
311.045	57.0955
313.938	46.9885
316.831	40.2004
319.724	9.41479
322.616	61.7197
325.509	34.7329
328.402	17.0998
331.294	33.4331
334.187	45.2102
337.08	60.5371
339.972	59.7827
342.865	11.0178
345.758	3.44067
348.651	34.7847
351.543	88.9697
354.436	71.157
357.329	64.2544
360.221	17.6829
363.114	39.0166
366.007	50.6084
368.899	16.324
371.792	37.1096
374.685	8.16577
377.577	30.3276
380.47	57.6484
383.363	66.6213
386.256	76.3281
389.148	15.8267
392.041	37.9785
394.934	50.0786
397.826	82.6702
400.719	60.2324
403.612	25.3875
406.505	16.6003
409.397	46.1435
412.29	82.2366
415.183	57.8762
418.075	32.4817
420.968	72.4141
423.861	59.1057
426.753	46.2739
429.646	32.4387
432.539	89.0503
435.432	110.374
438.324	45.6484
441.217	50.7654
444.11	41.5176
447.002	77.7708
449.895	57.0981
452.788	51.9336
455.68	32.0161
458.573	60.7109
461.466	5.49658
464.358	77.0925
467.251	28.7358
470.144	15.3591
473.037	29.4856
475.929	34.3191
478.822	34.908
481.715	41.8433
484.607	27.8271
487.5	58.2859
490.393	46.2976
493.286	31.8098
496.178	54.8801
499.071	4.53735
501.964	35.5017
504.856	30.894
507.749	2.47363
510.642	35.7891
513.534	36.9695
516.427	36.2454
519.32	23.9338
522.212	29.9582
525.105	10.7812
527.998	11.1421
530.891	0.064209
533.783	14.2063
536.676	41.2158
539.569	81.7222
542.461	13.8613
545.354	4.35986
548.247	12.0715
551.139	36.1543
554.032	49.6025
556.925	53.1482
559.818	45.4172
562.71	42.1089
565.603	43.385
568.496	13.2205
571.388	19.9751
574.281	52.0352
577.174	4.7041
580.067	11.7278
582.959	44.8914
585.852	33.0569
588.745	71.1081
591.637	45.5925
594.53	25.8086
597.423	24.5254
600.315	49.2146
603.208	55.8235
606.101	17.375
608.994	6.28833
611.886	10.7869
614.779	21.9705
617.672	32.0134
620.564	16.0903
623.457	25.615
626.35	12.1855
629.242	25.7669
632.135	41.3037
635.028	10.0476
637.92	32.2051
640.813	53.0405
643.706	28.1248
646.599	47.4839
649.491	43.3403
652.384	24.719
655.277	78.1853
658.169	75.6357
661.062	27.2524
663.955	57.5576
666.847	48.0884
669.74	76.7876
672.633	69.4133
675.525	22.8784
678.418	81.7764
681.311	119.952
684.204	104.955
687.096	55.2332
689.989	88.1838
692.882	91.5671
695.774	103.963
698.667	52.9158
701.56	67.7825
704.452	60.1895
707.345	83.2708
710.238	70.4563
713.131	112.106
716.023	110.656
718.916	92.4009
721.809	109.694
724.701	109.066
727.594	82.8015
730.487	101.322
733.38	77.2214
736.272	34.7766
739.165	72.2563
742.058	63.6616
744.95	87.6233
747.843	74.2031
750.736	58.1504
753.628	13.8306
756.521	73.8533
759.414	54.0471
762.307	47.2583
765.199	31.8477
768.092	29.1809
770.985	64.563
773.877	12.7075
776.77	42.9485
779.663	75.7524
782.555	12.0769
785.448	58.0559
788.341	26.5798
791.234	6.79492
794.126	25.8503
797.019	8.97266
799.912	14.3887
802.804	41.0703
805.697	6.99316
808.59	15.2366
811.482	23.5361
814.375	29.4514
817.268	22.2507
820.16	22.9976
823.053	14.8313
825.946	22.4002
828.839	4.09595
831.731	18.6697
834.624	12.936
837.517	18.7485
840.409	52.7681
843.302	36.5188
846.195	63.4209
849.087	63.8054
851.98	34.7334
854.873	33.4609
857.766	39.8281
860.658	42.063
863.551	43.7253
866.444	51.3547
869.336	49.5454
872.229	43.929
875.122	36.4365
878.014	31.0532
880.907	46.7192
883.8	32.2258
886.693	14.8931
889.585	24.8745
892.478	3.13892
895.371	21.4893
898.263	1.93579
901.156	9.01343
904.049	16.4248
906.942	41.3901
909.834	5.50317
912.727	33.1182
915.62	4.27441
918.512	27.9573
921.405	35.7034
924.298	42.1387
927.19	35.7212
930.083	37.9688
932.976	65.2249
935.869	65.3315
938.761	31.9875
941.654	52.9924
944.547	61.4619
947.439	49.199
950.332	45.7639
953.225	46.637
956.117	13.3918
959.01	50.1699
961.903	45.4055
964.795	7.48096
967.688	37.8267
970.581	22.4985
973.474	4.25439
976.366	11.834
979.259	43.1902
982.152	54.7288
985.044	36.4092
987.937	80.2644
990.83	37.3013
993.722	30.7375
996.615	21.3284
999.508	34.7463
1002.4	59.709
1005.29	86.7251
1008.19	51.0083
1011.08	74.0867
1013.97	22.4273
1016.86	61.9639
1019.76	52.1655
1022.65	26.7725
1025.54	33.8411
1028.43	26.7686
1031.33	80.4844
1034.22	44.2952
1037.11	51.7129
1040.01	94.5466
1042.9	17.9319
1045.79	59.0378
1048.68	23.7766
1051.58	43.9006
1054.47	20.9197
1057.36	3.39233
1060.26	19.5557
1063.15	23.907
1066.04	52.1182
1068.93	64.8594
1071.83	61.7612
1074.72	13.5713
1077.61	46.2983
1080.5	29.2488
1083.4	13.6736
1086.29	66.5742
1089.18	44.4592
1092.07	20.3164
1094.97	25.6843
1097.86	53.4915
1100.75	26.5044
1103.64	55.3457
1106.54	16.688
1109.43	10.8013
1112.32	57.6313
1115.22	103.597
1118.11	22.1558
1121	30.8335
1123.89	34.7109
1126.79	30.2549
1129.68	39.8179
1132.57	19.3852
1135.46	23.6206
1138.36	10.0732
1141.25	32.4917
1144.14	40.4624
1147.04	41.1162
1149.93	49.7275
1152.82	31.3227
1155.71	33.6196
1158.61	33.3071
1161.5	35.8159
1164.39	22.6006
1167.28	7.27197
1170.18	17.9951
1173.07	24.415
1175.96	55.479
1178.86	34.6323
1181.75	6.81494
1184.64	25.6846
1187.53	68.415
1190.43	45.0078
1193.32	46.0127
1196.21	49.4448
1199.1	30.6338
1202	33.3848
1204.89	23.4541
1207.78	66.8276
1210.67	38.186
1213.57	57.8921
1216.46	26.395
1219.35	48.3003
1222.25	41.4326
1225.14	48.3511
1228.03	30.9688
1230.92	26.6631
1233.82	68.3804
1236.71	83.8272
1239.6	72.6221
1242.49	33.5864
1245.39	52.5703
