Measurement: Raman, 532 nm, unoriented, Raman Data Processed
Mineral: Yofortierite
Rruff sample: R080111
Ideal chemistry: (Mn^2+^,Mg,Fe^3+^)_5_Si_8_O_20_(OH,H_2_O)_2_7H_2_O
Locality: Mont Saint-Hilaire, Quebec, Canada
Source: William W. Pinch
Description: Orange-brown thin fibers associated with albite
Raman shift (cm-1)	intensity
150.208	0
153.1	48.6172
155.993	65.0488
158.886	45.6133
161.778	28.1689
164.671	64.2627
167.564	92.415
170.456	118.344
173.349	105.295
176.242	90.3789
179.135	104.306
182.027	72.7666
184.92	70.5957
187.813	90.0478
190.705	54.5147
193.598	58.71
196.491	36.6201
199.383	31.0908
202.276	5.97559
205.169	4.83301
208.061	8.4707
210.954	6.77539
213.847	24.3105
216.74	37.5596
219.632	31.3701
222.525	9.68066
225.418	1.75098
228.31	2.06152
231.203	20.9375
234.096	7.91113
236.988	27.3418
239.881	19.9385
242.774	62.749
245.667	45.7529
248.559	63.6406
251.452	65.4941
254.345	91.29
257.237	80.5098
260.13	58.0059
263.023	51.9688
265.916	62.9863
268.808	57.4033
271.701	74.6514
274.594	95.9473
277.486	125.097
280.379	129.541
283.272	132.108
286.164	54.7207
289.057	81.8691
291.95	81.5781
294.842	55.751
297.735	47.2734
300.628	64.332
303.521	66.5283
306.413	75.7305
309.306	57.1699
312.199	45.9873
315.091	47.3887
317.984	62.4815
320.877	64.2812
323.769	47.9785
326.662	58.0547
329.555	63.4717
332.448	44.1787
335.34	33.3477
338.233	21.4287
341.126	2.09961
344.018	15.376
346.911	6.79688
349.804	45.458
352.697	51.7588
355.589	6.37598
358.482	27.6016
361.375	6.76269
364.267	29.1924
367.16	32.0166
370.053	11.667
372.945	16.2158
375.838	7.18164
378.731	29.5625
381.623	58.5977
384.516	43.2402
387.409	47.0742
390.302	46.916
393.194	13.3262
396.087	1.82715
398.98	5.89551
401.872	27.5273
404.765	66.043
407.658	55.1904
410.55	35.917
413.443	46.5361
416.336	34.1777
419.229	44.2754
422.121	48.3779
425.014	47.5996
427.907	1.61523
430.799	44.5342
433.692	44.6152
436.585	59.3203
439.478	43.0215
442.37	5.11328
445.263	22.623
448.156	6.02148
451.048	41.5938
453.941	73.9062
456.834	53.2832
459.726	41.5908
462.619	15.9434
465.512	8.84473
468.404	30.9531
471.297	7.99414
474.19	24.0332
477.083	19.835
479.975	30.4043
482.868	45.1074
485.761	39.5859
488.653	9.53906
491.546	13.3066
494.439	6.08691
497.332	16.6963
500.224	30.0654
503.117	25.0146
506.01	1.09766
508.902	12.0791
511.795	14.2812
514.688	15.7178
517.58	54.4795
520.473	45.8506
523.366	39.6309
526.259	24.1006
529.151	47.4961
532.044	24.0029
534.937	40.8662
537.829	42.8897
540.722	9.41699
543.615	54.5029
546.507	73.6943
549.4	54.1289
552.293	64.749
555.186	43.625
558.078	31.9355
560.971	71.3613
563.864	7.42969
566.756	2.80371
569.649	1.94434
572.542	10.7979
575.434	25.6611
578.327	24.8428
581.22	62.4853
584.112	60.9893
587.005	26.6143
589.898	34.6025
592.791	57.3369
595.683	57.0586
598.576	83.4043
601.469	67.9131
604.361	58.3066
607.254	72.1787
610.147	77.1514
613.04	94.2236
615.932	60.4287
618.825	41.8447
621.718	36.082
624.61	22.6465
627.503	69.6152
630.396	53.0225
633.288	57.0498
636.181	52.4219
639.074	50.1914
641.967	45.1953
644.859	8.12695
647.752	8.45508
650.645	8.24805
653.537	10.6719
656.43	7.92969
659.323	47.8848
662.216	107
665.108	100.322
668.001	52.5195
670.894	52.6055
673.786	17.3164
676.679	70.2754
679.572	51.7754
682.464	34.6934
685.357	38.6328
688.25	17.3945
691.143	8.88867
694.035	1.20898
696.928	29.5391
699.821	46.5098
702.713	60.916
705.606	15.998
708.499	41.3633
711.391	19.1562
714.284	32.2988
717.177	14.6836
720.069	6.67969
722.962	44.5762
725.855	60.1172
728.748	36.5977
731.64	47.1992
734.533	15.3535
737.426	46.3477
740.318	35.6172
743.211	21.3223
746.104	39.5352
748.996	26.1406
751.889	12.9316
754.782	18.3965
757.675	26.752
760.567	6.27344
763.46	42.0586
766.353	75.4394
769.245	29.3281
772.138	21.1836
775.031	55.9434
777.923	1.5293
780.816	1.30664
783.709	52.0684
786.602	72.7422
789.494	40.416
792.387	61.2715
795.28	74.5723
798.172	28.6602
801.065	49.3105
803.958	57.5625
806.851	67.1582
809.743	71.8613
812.636	5.86328
815.529	28.875
818.421	24.8594
821.314	61.9336
824.207	89.209
827.099	13.3125
829.992	5.39648
832.885	32.1719
835.778	19.4043
838.67	47.6836
841.563	41.8867
844.456	63.375
847.348	18.0098
850.241	20.2617
853.134	51.8652
856.026	78.2832
858.919	37.8379
861.812	5.52148
864.705	30.0664
867.597	60.5117
870.49	65.9551
873.383	47.7188
876.275	44.4492
879.168	41.6641
882.061	59.1758
884.953	34.2891
887.846	64.5234
890.739	91.459
893.631	69.3633
896.524	43.5137
899.417	42.8438
902.31	53.2754
905.202	74.0215
908.095	61.2559
910.988	59
913.88	44.4746
916.773	64.0195
919.666	60.7012
922.558	74.4902
925.451	70.7422
928.344	124.051
931.237	66.959
934.129	30.2461
937.022	7.09375
939.915	4.55469
942.807	14.584
945.7	13.4551
948.593	28.5254
951.486	15.4707
954.378	37.0332
957.271	48.2832
960.164	13.3594
963.056	12.6191
965.949	6.12305
968.842	16.9375
971.734	48.2129
974.627	58.2129
977.52	38.582
980.413	75.8887
983.305	57.4238
986.198	79.3438
989.091	124.926
991.983	72.8398
994.876	32.4141
997.769	29.9551
1000.66	8.50195
1003.55	28.2891
1006.45	50.9453
1009.34	34.6152
1012.23	70.793
1015.12	74.2656
1018.02	72.6934
1020.91	5.6543
1023.8	24.9395
1026.7	9.63672
1029.59	59.4473
1032.48	37.0371
1035.37	12.6855
1038.27	39.6484
1041.16	31.8906
1044.05	37.5137
1046.94	7.6875
1049.84	21.4277
1052.73	11.0234
1055.62	76.0762
1058.52	88.1445
1061.41	59.7539
1064.3	32.9746
1067.19	68.9492
1070.09	0.939453
1072.98	12.5137
1075.87	5.18359
1078.76	37.1641
1081.66	68.8691
1084.55	57.4023
1087.44	65.0684
1090.34	31.5527
1093.23	17.4922
1096.12	47.7109
1099.01	66.2461
1101.91	101.012
1104.8	38.0137
1107.69	66.3164
1110.58	1.10547
1113.48	62.2676
1116.37	64.5606
1119.26	56.2266
1122.15	22.627
1125.05	12.5508
1127.94	12.7285
1130.83	89.3633
1133.73	104.705
1136.62	136.537
1139.51	108.471
1142.4	84.6309
1145.3	72.7461
1148.19	47.543
1151.08	20.1348
1153.97	10.3789
1156.87	14.9707
1159.76	39.4141
1162.65	28.543
1165.55	112.93
1168.44	102.385
1171.33	74.416
1174.22	99.9863
1177.12	66.2891
1180.01	68.3731
1182.9	37.3633
1185.79	41.625
1188.69	86.0918
1191.58	62.8516
1194.47	101.65
1197.37	62.1562
1200.26	31.1113
1203.15	74.6387
1206.04	84.6387
1208.94	52.5078
1211.83	76.6914
1214.72	108.766
1217.61	131.551
1220.51	63.4062
1223.4	48.043
1226.29	91.791
1229.18	98.5664
1232.08	95.1992
1234.97	113.877
1237.86	3.92188
1240.76	30.0332
1243.65	17.2051
1246.54	9.18945
1249.43	106.283
1252.33	92.6348
1255.22	73.6094
1258.11	28.7832
1261	52.1035
1263.9	81.9336
1266.79	55.125
1269.68	114.473
1272.58	94.043
1275.47	66.2422
1278.36	67.8301
1281.25	67.3223
1284.15	73.2188
1287.04	138.184
1289.93	171.285
1292.82	118.17
1295.72	77.9199
1298.61	3.60742
1301.5	79.3184
1304.39	0
