Measurement: Raman, 780 nm, unoriented, Raman Data Processed
Mineral: Yofortierite
Rruff sample: R080111
Ideal chemistry: (Mn^2+^,Mg,Fe^3+^)_5_Si_8_O_20_(OH,H_2_O)_2_7H_2_O
Locality: Mont Saint-Hilaire, Quebec, Canada
Source: William W. Pinch
Description: Orange-brown thin fibers associated with albite
Raman shift (cm-1)	intensity
150.377	0
153.27	68.1406
156.163	40.3672
159.055	71
161.948	9.04297
164.841	55
167.734	44.8516
170.626	87.1719
173.519	80.7734
176.412	90.957
179.304	125.633
182.197	156.305
185.09	114.445
187.982	150.305
190.875	156.402
193.768	125.449
196.661	67.4141
199.553	104.09
202.446	64.3086
205.339	137.09
208.231	173.644
211.124	202.352
214.017	172.945
216.91	145.641
219.802	106.547
222.695	167.512
225.588	136.16
228.48	166.875
231.373	179.215
234.266	111.281
237.158	90.0977
240.051	114.336
242.944	48.1914
245.837	88.9258
248.729	205.137
251.622	164.719
254.515	162.219
257.407	168.832
260.3	175.012
263.193	115.379
266.085	163.902
268.978	121.59
271.871	153.211
274.764	55.2656
277.656	54.3164
280.549	65.4727
283.442	129.652
286.334	129.047
289.227	110.172
292.12	124.453
295.012	35.1328
297.905	78.1289
300.798	28.6016
303.69	26.2461
306.583	10.8516
309.476	14.8086
312.369	16.1719
315.261	21.7969
318.154	100.332
321.047	98.2773
323.939	105.227
326.832	44.6992
329.725	65.2305
332.618	39.9648
335.51	103.051
338.403	81.3359
341.296	117.203
344.188	68.6016
347.081	68.4102
349.974	85.7285
352.866	16.5918
355.759	11.7812
358.652	35.4863
361.545	27.7285
364.437	42.543
367.33	24.6602
370.223	103.781
373.115	79.4277
376.008	27.2109
378.901	1.51953
381.793	22.834
384.686	6.41211
387.579	32.5566
390.471	10.2852
393.364	0.888672
396.257	61.9805
399.15	46.9023
402.042	8.67578
404.935	51.6328
407.828	68.6992
410.72	112.709
413.613	98.5215
416.506	89.1582
419.399	142.289
422.291	204.307
425.184	217.623
428.077	189.227
430.969	201.775
433.862	160.693
436.755	171.717
439.647	181.115
442.54	157.982
445.433	202.615
448.325	220.434
451.218	175.238
454.111	199.773
457.004	224.912
459.896	252.082
462.789	294.881
465.682	281.004
468.574	301.897
471.467	346.818
474.36	356.617
477.252	299.008
480.145	278.559
483.038	287.402
485.931	298.555
488.823	303.844
491.716	290.121
494.609	286.035
497.501	255.121
500.394	259.018
503.287	154.547
506.18	198.91
509.072	143.287
511.965	164.164
514.858	151.123
517.75	174.807
520.643	152.068
523.536	158.641
526.428	102.16
529.321	85.0684
532.214	62.9688
535.106	52.0879
537.999	9.93359
540.892	2.80859
543.785	3.64062
546.677	4.26953
549.57	1.2793
552.463	16.7832
555.355	31.3379
558.248	60.3359
561.141	42.4961
564.034	37.9043
566.926	73.291
569.819	84.2715
572.712	32.957
575.604	23.8223
578.497	96.0801
581.39	67.7012
584.282	7.17578
587.175	146.76
590.068	116.791
592.96	126.58
595.853	75.8633
598.746	124.389
601.639	107.555
604.531	107.781
607.424	134.397
610.317	81.1523
613.209	104.404
616.102	58.418
618.995	113.918
621.888	113.174
624.78	140.703
627.673	126.34
630.566	131.629
633.458	84.4316
636.351	79.6113
639.244	91.7519
642.136	68.9981
645.029	31.6484
647.922	57.8262
650.814	57.4219
653.707	13.1562
656.6	20.7773
659.493	37.9199
662.385	40.502
665.278	21.8418
668.171	63.2793
671.063	8.63281
673.956	19.2559
676.849	19.3477
679.741	18.498
682.634	2.22852
685.527	43.0996
688.42	19.7461
691.312	15.4688
694.205	18.3848
697.098	10.9023
699.99	25.2773
702.883	50.5469
705.776	7.91016
708.668	27.1309
711.561	48.9648
714.454	34.1973
717.347	35.4082
720.239	60.4785
723.132	39.832
726.025	20.2871
728.917	37.4785
731.81	33.8848
734.703	17.748
737.596	65.4297
740.488	60.6953
743.381	84.7422
746.274	49.7539
749.166	42.3008
752.059	52.1172
754.952	7.96484
757.844	28.6738
760.737	11.1289
763.63	0.767578
766.523	2.125
769.415	8.57617
772.308	12.1133
775.201	40.3145
778.093	7.16016
780.986	64.2266
783.879	58.0078
786.771	46.6543
789.664	50.9238
792.557	38.0098
795.449	31.5527
798.342	65.7031
801.235	56.5664
804.128	14.2168
807.02	124.418
809.913	104.307
812.806	52.4453
815.698	43.3516
818.591	106.934
821.484	74.0977
824.376	104.057
827.269	110.703
830.162	139.227
833.055	118.697
835.947	126.332
838.84	140.135
841.733	111.764
844.625	113.789
847.518	136.685
850.411	104.92
853.303	94.0566
856.196	79.4609
859.089	104.275
861.982	85.5391
864.874	116.754
867.767	126.525
870.66	152.994
873.552	115.654
876.445	129.565
879.338	103.514
882.231	146.377
885.123	136.422
888.016	113.789
890.909	106.596
893.801	122.752
896.694	121.697
899.587	83.666
902.479	88.6543
905.372	37.2812
908.265	33.6426
911.158	20.8652
914.05	8.31836
916.943	3.96484
919.836	10.7734
922.728	0.976563
925.621	11.2695
928.514	8.45117
931.406	55.6211
934.299	19.0352
937.192	29.0742
940.084	31.3516
942.977	42.3027
945.87	66.6875
948.763	85.9688
951.655	96.8887
954.548	61.3887
957.441	101.467
960.333	100.027
963.226	88.1699
966.119	63.291
969.011	58.9062
971.904	70.6016
974.797	45.4805
977.689	3.19336
980.582	7.25977
983.475	23.4258
986.368	8.43164
989.26	21.6328
992.153	38.3379
995.046	68.3867
997.938	53.668
1000.83	101.166
1003.72	28.334
1006.62	5.54883
1009.51	33.0742
1012.4	15.3652
1015.29	61.7246
1018.19	61.1973
1021.08	67.3613
1023.97	47.7441
1026.87	109.904
1029.76	89.2793
1032.65	168.109
1035.54	130.76
1038.44	174.197
1041.33	154.16
1044.22	126.314
1047.11	106.289
1050.01	124.289
1052.9	155.59
1055.79	167.891
1058.68	146.18
1061.58	187.125
1064.47	141.588
1067.36	132.43
1070.26	115.707
1073.15	109.652
1076.04	116.715
1078.93	111.764
1081.83	127.586
1084.72	69.8535
1087.61	71.4219
1090.51	80.8613
1093.4	83.709
1096.29	50.7832
1099.18	51.75
1102.08	6.74219
1104.97	11.0645
1107.86	6.58398
1110.75	21.8965
1113.65	20.125
1116.54	18.9863
1119.43	26.5195
1122.32	50.4316
1125.22	57.207
1128.11	34.9512
1131	70.4766
1133.89	60.8965
1136.79	89.7461
1139.68	79.9453
1142.57	88.5371
1145.47	66.4219
1148.36	134.68
1151.25	134.135
1154.14	115.975
1157.04	151.775
1159.93	120.527
1162.82	132.74
1165.71	118.639
1168.61	126.537
1171.5	102.709
1174.39	184.848
1177.29	173.816
1180.18	169.629
1183.07	175.279
1185.96	166.144
1188.86	132
1191.75	150.607
1194.64	118.602
1197.54	137.549
1200.43	111.252
1203.32	126.943
1206.21	85.2988
1209.11	77.75
1212	55.8281
1214.89	44.6211
1217.78	81.084
1220.68	35.8438
1223.57	26.6992
1226.46	27.3848
1229.35	50.9043
1232.25	12.168
1235.14	46.1387
1238.03	34.752
1240.92	7.38086
1243.82	11.9629
1246.71	7.25977
1249.6	2.03516
1252.5	1.48633
1255.39	48.918
1258.28	32.6016
1261.17	29.3145
1264.07	37.0898
1266.96	71.1309
1269.85	30.5586
1272.74	25.1289
1275.64	8.58594
1278.53	49.4883
1281.42	3.25586
1284.32	17.791
