Measurement: Raman, 780 nm, unoriented, Raman Data Processed
Mineral: Yuanfuliite
Rruff sample: R100067
Ideal chemistry: Mg(Fe^3+^,Al)O(BO_3_)
Locality: La Ceila, near Jumilla, Murcia Province, Spain
Source: Bob Jenkins
Description: Sprays of red needles associated with black tabular hematite, colorless plates of sanidine, and yellow bladed crystals of an amphibole R100069, possibly richterite
Raman shift (cm-1)	intensity
103.104	0
106.479	3.146
109.854	8.24756
113.228	12.3023
116.603	8.31982
119.978	8.6748
123.353	2.20166
126.728	11.0523
130.102	25.2793
133.477	26.9922
136.852	30.5181
140.227	20.4722
143.602	37.02
146.977	47.8706
150.351	49.9653
153.726	47.6284
157.101	42.3315
160.476	49.5688
163.851	43.6177
167.226	55.9033
170.6	44.3301
173.975	38.1475
177.35	28.3301
180.725	47.3701
184.1	35.0298
187.474	33.1089
190.849	13.5283
194.224	38.9263
197.599	20.6675
200.974	22.375
204.349	18.125
207.723	37.8892
211.098	29.6943
214.473	13.2998
217.848	34.1753
221.223	39.8945
224.597	23.7539
227.972	22.083
231.347	25.6929
234.722	32.0981
238.097	26.6465
241.471	26.0195
244.846	26.7695
248.221	32.3828
251.596	19.748
254.971	18.8657
258.346	23.4556
261.72	13.2749
265.095	22.9575
268.47	2.97022
271.845	16.8833
275.22	5.88965
278.594	6.22803
281.969	8.43506
285.344	12.2803
288.719	12.3906
292.094	9.6416
295.469	0.039063
298.843	6.22217
302.218	7.02051
305.593	5.54248
308.968	22.1924
312.343	9.08545
315.717	24.5435
319.092	4.47949
322.467	15.1094
325.842	18.1733
329.217	30.9741
332.592	12.2207
335.966	15.479
339.341	38.1397
342.716	37.4111
346.091	34.9209
349.466	41.3335
352.841	41.0713
356.215	28.5601
359.59	42.3486
362.965	39.335
366.34	17.1987
369.715	45.5068
373.089	22.2866
376.464	10.1352
379.839	0.888672
383.214	7.79199
386.589	9.95801
389.964	2.24268
393.338	2.12647
396.713	9.08105
400.088	3.74219
403.463	16.9302
406.838	14.5542
410.212	11.3057
413.587	16.1216
416.962	13.4131
420.337	17.9219
423.712	20.5625
427.087	5.20606
430.461	17.5474
433.836	15.9692
437.211	33.2402
440.586	18.7105
443.961	27.3584
447.335	3.53662
450.71	15.7446
454.085	3.4541
457.46	10.3535
460.835	26.999
464.209	28.1191
467.584	27.5635
470.959	21.7759
474.334	25.0186
477.709	15.0068
481.084	16.0684
484.458	18.6968
487.833	2.70459
491.208	14.873
494.583	18.9287
497.958	5.84033
501.332	8.88721
504.707	4.38672
508.082	3.89356
511.457	5.75732
514.832	11.2124
518.207	1.65918
521.581	0.334473
524.956	4.16406
528.331	15.5
531.706	7.96777
535.081	7.43066
538.455	2.02246
541.83	2.64697
545.205	4.82422
548.58	7.75537
551.955	11.0767
555.33	17.5088
558.704	9.72168
562.079	26.4185
565.454	13.3833
568.829	9.97021
572.204	8.44385
575.578	10.9741
578.953	14.9438
582.328	21.7754
585.703	20.0625
589.078	24.3359
592.452	16.8018
595.827	2.26514
599.202	10.7974
602.577	14.0796
605.952	18.8755
609.327	7.18604
612.701	18.3227
616.076	21.4014
619.451	5.86621
622.826	8.24365
626.201	18.0737
629.576	29.3677
632.95	28.833
636.325	26.7895
639.7	31.728
643.075	16.2021
646.45	18.1396
649.824	7.42285
653.199	6.37305
656.574	6.43652
659.949	10.0503
663.324	5.74561
666.698	9.54053
670.073	4.44287
673.448	16.6631
676.823	20.2505
680.198	35.6753
683.573	28.2778
686.947	18.6939
690.322	18.7056
693.697	11.5107
697.072	17.6333
700.447	2.29932
703.822	16.8096
707.196	8.72266
710.571	8.25879
713.946	0.519043
717.321	6.71875
720.696	22.2241
724.07	15.1724
727.445	13.6089
730.82	14.6304
734.195	4.62354
737.57	18.8706
740.944	1.24805
744.319	11.5957
747.694	10.7358
751.069	16.0708
754.444	6.20752
757.818	28.4731
761.193	5.41553
764.568	1.68848
767.943	16.2881
771.318	6.73828
774.693	2.604
778.067	0.022461
781.442	5.45439
784.817	10.7529
788.192	24.0649
791.567	11.6763
794.942	27.9614
798.316	14.624
801.691	15.2168
805.066	0.028809
808.441	16.0781
811.816	3.23633
815.19	2.4458
818.565	26.1226
821.94	25.9145
825.315	26.6992
828.69	21.5752
832.064	26.2651
835.439	20.21
838.814	26.9395
842.189	29.5225
845.564	15.4751
848.939	24.7852
852.313	31.396
855.688	18.7144
859.063	26.4273
862.438	20.8584
865.813	25.1655
869.188	35.0107
872.562	15.791
875.937	22.4062
879.312	8.25244
882.687	25.3677
886.062	31.647
889.436	30.2261
892.811	18.398
896.186	4.68213
899.561	31.2041
902.936	12.6548
906.311	28.9439
909.685	12.9619
913.06	2.42627
916.435	17.4673
919.81	24.6069
923.185	12.3799
926.559	2.13867
929.934	12.3511
933.309	11.4702
936.684	12.0552
940.059	4.22266
943.433	28.7915
946.808	19.5142
950.183	21.8648
953.558	20.6895
956.933	22.2764
960.308	24.2207
963.682	7.2168
967.057	6.39697
970.432	0.342773
973.807	17.2964
977.182	1.88477
980.557	8.79102
983.931	3.06592
987.306	4.67969
990.681	16.4145
994.056	12.7915
997.431	14.6977
1000.8	25.2461
1004.18	7.61719
1007.55	1.11816
1010.93	4.10205
1014.3	8.35352
1017.68	30.3926
1021.05	30.4111
1024.43	22.1314
1027.8	33.4932
1031.18	23.7476
1034.55	8.7959
1037.93	26.7241
1041.3	24.6577
1044.68	40.728
1048.05	33.6426
1051.43	22.9014
1054.8	0.729492
1058.18	5.22266
1061.55	3.23682
1064.93	5.93506
1068.3	10.3252
1071.68	16.8452
1075.05	14.8096
1078.43	2.00195
1081.8	23.707
1085.18	32.2563
1088.55	27.7178
1091.92	6.73633
1095.3	0.575684
1098.67	3.81445
1102.05	4.87939
1105.42	4.83691
1108.8	54.1773
1112.17	33.9312
1115.55	34.5855
1118.92	5.92236
1122.3	32.8057
1125.67	15.5146
1129.05	26.8862
1132.42	14.8565
1135.8	21.54
1139.17	27.0444
1142.55	23.8184
1145.92	24.5523
1149.3	6.49609
1152.67	16.5254
1156.05	23.6899
1159.42	16.4609
1162.8	23.3799
1166.17	15.2017
1169.55	31.3135
1172.92	24.5395
1176.3	25.102
1179.67	41.206
1183.05	31.4448
1186.42	13.2925
1189.8	40.9258
1193.17	53.6475
1196.55	35.0327
1199.92	18.585
1203.29	31.2124
1206.67	30.9058
1210.04	23.6587
1213.42	28.7549
1216.79	32.9673
1220.17	12.0225
1223.54	1.75391
1226.92	29.4961
1230.29	9.83301
1233.67	18.9121
1237.04	24.1616
1240.42	13.3393
1243.79	1.36035
1247.17	20.8501
1250.54	6.39697
1253.92	19.6685
1257.29	25.0474
1260.67	49.8345
1264.04	55.7295
1267.42	24.4512
1270.79	7.13965
1274.17	6.40771
1277.54	17.125
1280.91	13.3813
1284.29	12.7471
