Measurement: Raman, 532 nm, unoriented, Raman Data Processed
Mineral: Yuanfuliite
Rruff sample: R100067
Ideal chemistry: Mg(Fe^3+^,Al)O(BO_3_)
Locality: La Ceila, near Jumilla, Murcia Province, Spain
Source: Bob Jenkins
Description: Sprays of red needles associated with black tabular hematite, colorless plates of sanidine, and yellow bladed crystals of an amphibole R100069, possibly richterite
Raman shift (cm-1)	intensity
178.237	0
181.13	0.253723
184.023	6.24536
186.916	9.54181
189.808	10.8591
192.701	15.5967
195.594	12.0435
198.486	16.1127
201.379	19.0402
204.272	20.3933
207.164	25.5588
210.057	19.1324
212.95	18.133
215.843	16.8841
218.735	26.5909
221.628	17.234
224.521	16.9376
227.413	17.2553
230.306	24.6461
233.199	30.0906
236.091	22.1811
238.984	18.9332
241.877	17.2733
244.769	13.9681
247.662	18.5048
250.555	7.50971
253.448	10.2087
256.34	8.01556
259.233	5.42529
262.126	9.14258
265.018	7.80322
267.911	0.970093
270.804	8.26715
273.697	0.02063
276.589	3.45947
279.482	0.277161
282.375	0.477783
285.267	0.534241
288.16	6.40088
291.053	3.0542
293.945	4.82404
296.838	1.72919
299.731	3.75159
302.623	2.20966
305.516	2.40161
308.409	8.32764
311.302	0.786072
314.194	0.058899
317.087	2.97961
319.98	1.77564
322.872	9.86554
325.765	8.07794
328.658	2.03888
331.55	3.64941
334.443	4.00665
337.336	4.99951
340.229	11.2069
343.121	9.58673
346.014	14.1721
348.907	15.1711
351.799	15.8059
354.692	17.0356
357.585	18.2508
360.478	27.8528
363.37	26.564
366.263	20.8782
369.156	15.2834
372.048	18.6164
374.941	12.3243
377.834	6.92157
380.726	10.4432
383.619	12.2413
386.512	16.7082
389.404	13.6793
392.297	17.6938
395.19	18.1475
398.083	16.6024
400.975	9.33148
403.868	9.92859
406.761	10.7841
409.653	9.94983
412.546	8.6402
415.439	5.66943
418.332	0.344482
421.224	3.32562
424.117	4.20032
427.01	3.58569
429.902	3.9917
432.795	5.70654
435.688	6.50446
438.58	6.18451
441.473	3.30383
444.366	3.54358
447.259	4.17712
450.151	5.57562
453.044	5.38159
455.937	2.1311
458.829	1.66974
461.722	6.32489
464.615	3.97571
467.507	1.29517
470.4	6.42188
473.293	1.72656
476.185	1.87256
479.078	6.82361
481.971	2.72833
484.864	3.88562
487.756	5.58112
490.649	0.735229
493.542	3.92548
496.434	8.01691
499.327	4.43036
502.22	5.97095
505.113	4.26025
508.005	4.43457
510.898	1.50623
513.791	7.922
516.683	2.20227
519.576	2.66101
522.469	4.40918
525.361	11.016
528.254	11.7132
531.147	5.26831
534.04	12.9114
536.932	10.1822
539.825	8.5072
542.718	4.9997
545.61	7.72095
548.503	3.71814
551.396	5.32092
554.288	5.94757
557.181	4.07904
560.074	4.68713
562.967	0.520874
565.859	6.13654
568.752	5.42212
571.645	9.44098
574.537	2.3454
577.43	1.4231
580.323	2.00391
583.216	7.862
586.108	12.904
589.001	8.56775
591.894	8.099
594.786	6.71826
597.679	2.48871
600.572	1.05951
603.464	6.50067
606.357	5.2616
609.25	12.8472
612.142	13.363
615.035	11.5707
617.928	5.78906
620.821	7.7843
623.713	12.3837
626.606	8.55536
629.499	14.6501
632.391	15.8052
635.284	18.8276
638.177	21.7228
641.069	16.2689
643.962	10.4894
646.855	16.8531
649.747	18.0678
652.64	16.4369
655.533	13.7233
658.426	13.9165
661.318	9.57965
664.211	6.98731
667.104	5.18372
669.996	5.66858
672.889	2.29938
675.782	7.73169
678.674	0.510559
681.567	0.053833
684.46	5.76025
687.353	6.40491
690.245	0.828796
693.138	4.03467
696.031	0.678955
698.923	3.19092
701.816	5.20312
704.709	1.12939
707.601	2.78369
710.494	4.02905
713.387	8.20874
716.28	2.13879
719.172	1.63513
722.065	2.00256
724.958	8.02417
727.85	13.1111
730.743	7.85889
733.636	3.06421
736.529	7.9043
739.421	8.45752
742.314	5.49927
745.207	6.13794
748.099	13.5207
750.992	10.2523
753.885	9.14343
756.777	3.97729
759.67	8.06299
762.563	11.6267
765.456	12.1963
768.348	9.15942
771.241	3.20898
774.134	7.16357
777.026	9.099
779.919	11.5476
782.812	8.82336
785.704	8.60815
788.597	3.5426
791.49	12.6611
794.383	17.5554
797.275	11.9337
800.168	6.30139
803.061	6.08179
805.953	4.88318
808.846	4.28564
811.739	2.26306
814.631	1.14551
817.524	2.44507
820.417	0.31897
823.309	4.00146
826.202	2.39539
829.095	0.532104
831.988	8.86548
834.88	4.33691
837.773	8.08923
840.666	1.37012
843.558	3.35596
846.451	7.26404
849.344	4.38318
852.236	6.58679
855.129	3.38928
858.022	3.05737
860.915	2.23743
863.807	7.17651
866.7	6.05359
869.593	5.69141
872.485	4.79565
875.378	5.86462
878.271	12.3861
881.163	6.80273
884.056	4.26623
886.949	0.846069
889.842	7.10779
892.734	8.15344
895.627	7.78613
898.52	5.55017
901.412	9.62305
904.305	1.71692
907.198	10.0597
910.091	8.90918
912.983	0.034546
915.876	4.3092
918.769	4.1189
921.661	6.83606
924.554	12.3896
927.447	5.38892
930.339	7.97253
933.232	6.05823
936.125	4.07227
939.018	5.41101
941.91	5.11694
944.803	5.37183
947.696	4.79981
950.588	15.2026
953.481	11.9603
956.374	10.0682
959.266	6.26941
962.159	2.75647
965.052	2.16968
967.944	3.57141
970.837	4.25452
973.73	4.96021
976.623	7.50256
979.515	11.7828
982.408	3.9801
985.301	8.84448
988.193	4.76367
991.086	9.95508
993.979	3.37183
996.871	0.722656
999.764	4.32153
1002.66	11.6967
1005.55	13.9137
1008.44	5.61939
1011.34	14.0918
1014.23	9.5669
1017.12	10.7382
1020.01	10.4925
1022.91	4.9353
1025.8	5.54529
1028.69	0.347412
1031.58	10.0142
1034.48	15.206
1037.37	7.26489
1040.26	2.77478
1043.15	1.7113
1046.05	2.22937
1048.94	0.978638
1051.83	8.35718
1054.73	7.31238
1057.62	7.26965
1060.51	7.38818
1063.4	3.11169
1066.3	3.93372
1069.19	2.86072
1072.08	4.68469
1074.97	5.50391
1077.87	4.04504
1080.76	7.87439
1083.65	1.63611
1086.55	7.46973
1089.44	3.68982
1092.33	2.98132
1095.22	8.08142
1098.12	3.66223
1101.01	5.84936
1103.9	1.1499
1106.79	9.79102
1109.69	8.17383
1112.58	8.3385
1115.47	7.58289
1118.37	9.23096
1121.26	9.20776
1124.15	7.33484
1127.04	0.186035
1129.94	7.85742
1132.83	4.68884
1135.72	4.44299
1138.61	10.8385
1141.51	3.20715
1144.4	7.89746
1147.29	0.926514
1150.18	7.79077
1153.08	15.85
1155.97	8.2456
1158.86	12.1062
1161.76	6.7218
1164.65	5.55115
1167.54	0.028809
1170.43	7.93335
1173.33	4.6925
1176.22	6.34229
1179.11	2.50915
1182	3.41565
1184.9	3.02319
1187.79	6.54932
1190.68	0.348511
1193.58	0.768555
1196.47	8.33118
1199.36	6.50146
1202.25	7.80701
1205.15	9.16602
1208.04	3.18872
1210.93	11.8118
1213.82	8.96265
1216.72	5.39612
1219.61	3.05151
1222.5	6.28271
1225.39	5.58044
1228.29	3.25342
1231.18	12.983
1234.07	16.5015
1236.97	10.9159
1239.86	4.88977
1242.75	6.51038
1245.64	8.12695
1248.54	5.50476
1251.43	14.1298
1254.32	15.4598
1257.21	6.04858
1260.11	1.65259
1263	3.43335
1265.89	7.86658
1268.79	13.158
1271.68	14.9222
1274.57	10.2385
1277.46	6.32776
1280.36	4.57288
1283.25	5.10388
1286.14	3.46582
1289.03	4.01135
1291.93	1.83618
1294.82	5.8833
1297.71	12.7611
1300.61	7.84033
