Measurement: Raman, 780 nm, unoriented, Raman Data Processed
Mineral: Yvonite
Rruff sample: R100010
Ideal chemistry: Cu^2+^(As^5+^O_3_OH)2H_2_O
Locality: Salsigne Gold mine, Aude, France
Source: William Pinch
Description: Aggregates of pale blue grains
Raman shift (cm-1)	intensity
110.948	0
114.323	0.28812
117.697	3.4842
121.072	4.20172
124.447	3.54372
127.822	4.8698
131.197	5.95904
134.571	3.94667
137.946	4.77705
141.321	1.89719
144.696	1.62434
148.071	2.40204
151.446	0.297058
154.82	0.768818
158.195	1.57957
161.57	2.72385
164.945	1.59351
168.32	0.10239
171.695	0.64045
175.069	2.50575
178.444	3.92147
181.819	2.05921
185.194	2.45622
188.569	2.35143
191.943	3.52439
195.318	4.95387
198.693	3.07586
202.068	3.92511
205.443	4.72822
208.817	1.44765
212.192	4.57421
215.567	5.58295
218.942	5.44167
222.317	4.13973
225.691	1.35716
229.066	1.92034
232.441	1.51349
235.816	1.72788
239.191	0.995352
242.566	0.400877
245.94	2.55683
249.315	1.80239
252.69	1.58504
256.065	0.865978
259.44	2.86518
262.815	1.20727
266.189	4.50811
269.564	1.7357
272.939	0.935942
276.314	2.92945
279.689	4.17807
283.063	1.12589
286.438	2.42862
289.813	2.43171
293.188	1.54349
296.563	1.43075
299.938	0.398701
303.312	0.994471
306.687	3.28159
310.062	0.223541
313.437	0.002556
316.812	0.042795
320.186	0.903969
323.561	2.45001
326.936	2.5585
330.311	1.97365
333.686	3.34523
337.06	2.93647
340.435	3.42815
343.81	3.51133
347.185	2.66798
350.56	4.76317
353.935	3.60636
357.309	2.99803
360.684	2.45966
364.059	3.8125
367.434	2.50373
370.809	0.572712
374.183	0.424162
377.558	4.29662
380.933	1.7769
384.308	0.724375
387.683	1.4143
391.058	0.712101
394.432	0.80311
397.807	0.492943
401.182	0.129669
404.557	2.22129
407.932	0.817738
411.307	3.43622
414.681	0.244658
418.056	1.36031
421.431	0.941351
424.806	1.64911
428.18	0.090734
431.555	1.2228
434.93	3.66582
438.305	2.12511
441.68	2.59419
445.055	3.93113
448.429	1.08204
451.804	4.04
455.179	1.35096
458.554	0.466654
461.929	1.19842
465.303	4.21446
468.678	1.97539
472.053	0.282133
475.428	1.12612
478.803	1.55351
482.178	2.06645
485.552	3.13757
488.927	1.892
492.302	3.02266
495.677	1.46262
499.052	2.54949
502.426	2.23432
505.801	1.96288
509.176	3.3587
512.551	3.5363
515.926	1.45162
519.301	1.73597
522.675	3.03611
526.05	1.93345
529.425	5.51243
532.8	5.30281
536.175	4.1402
539.549	4.01867
542.924	3.2066
546.299	4.49128
549.674	3.82398
553.049	2.85497
556.424	2.41683
559.798	0.871996
563.173	2.65365
566.548	1.12115
569.923	0.906441
573.298	1.90687
576.673	0.960405
580.047	2.3722
583.422	2.9803
586.797	0.76277
590.172	3.5965
593.547	2.4315
596.921	2.08199
600.296	1.23955
603.671	3.3822
607.046	1.76053
610.421	3.19968
613.795	0.331213
617.17	1.90914
620.545	1.73731
623.92	0.95043
627.295	2.90225
630.67	0.713099
634.044	0.896955
637.419	1.18074
640.794	0.661007
644.169	2.39047
647.544	1.9504
650.918	2.63015
654.293	2.05432
657.668	0.719391
661.043	1.79261
664.418	1.17668
667.793	1.77032
671.167	0.687422
674.542	2.64332
677.917	0.675362
681.292	2.73031
684.667	2.45694
688.041	2.10944
691.416	0.559645
694.791	0.574469
698.166	2.8829
701.541	1.33414
704.915	2.51594
708.29	4.88942
711.665	2.42036
715.04	2.40692
718.415	2.86536
721.79	2.72885
725.164	4.00153
728.539	2.31338
731.914	1.70073
735.289	1.43074
738.664	1.86394
742.038	1.91581
745.413	0.037088
748.788	2.87658
752.163	0.560795
755.538	0.250566
758.913	0.027056
762.287	2.60514
765.662	0.952618
769.037	1.29921
772.412	1.50463
775.787	1.15134
779.162	0.664598
782.536	3.07581
785.911	2.76587
789.286	2.88124
792.661	0.094233
796.036	1.25673
799.41	0.590528
802.785	0.590458
806.16	0.127411
809.535	1.22715
812.91	3.28826
816.284	2.04237
819.659	3.73781
823.034	6.46174
826.409	8.62919
829.784	8.44371
833.159	9.8547
836.533	12.0286
839.908	13.8736
843.283	14.2118
846.658	17.124
850.033	14.2424
853.408	13.1108
856.782	11.4259
860.157	7.78877
863.532	8.4909
866.907	7.1809
870.282	4.97303
873.656	5.51822
877.031	5.20956
880.406	4.40046
883.781	4.88132
887.156	3.51383
890.53	3.75417
893.905	4.32466
897.28	2.80558
900.655	1.90588
904.03	2.40044
907.404	2.65864
910.779	1.7305
914.154	2.72698
917.529	2.09179
920.904	1.52697
924.279	0.403948
927.653	1.56881
931.028	3.15048
934.403	1.12895
937.778	1.29875
941.153	0.38114
944.528	0.557867
947.902	1.42042
951.277	1.8381
954.652	1.31543
958.027	1.11334
961.402	0.88975
964.776	2.01286
968.151	0.118494
971.526	0.065245
974.901	0.216352
978.276	1.89383
981.65	0.400343
985.025	5.66751
988.4	2.67714
991.775	1.0447
995.15	3.74396
998.525	3.46565
1001.9	3.40173
1005.27	2.63261
1008.65	3.4449
1012.02	0.704361
1015.4	1.41746
1018.77	2.73703
1022.15	2.89206
1025.52	2.68177
1028.9	2.80856
1032.27	3.17718
1035.65	4.44895
1039.02	5.30845
1042.4	4.34284
1045.77	2.08964
1049.15	3.01359
1052.52	1.53748
1055.9	3.67475
1059.27	2.96423
1062.65	0.153042
1066.02	1.63099
1069.4	2.29987
1072.77	1.88686
1076.14	1.97695
1079.52	4.7314
1082.89	1.84569
1086.27	1.25707
1089.64	2.52415
1093.02	3.03649
1096.39	0.569685
1099.77	1.26588
1103.14	1.49216
1106.52	3.01597
1109.89	0.534719
1113.27	3.73678
1116.64	2.23273
1120.02	3.85509
1123.39	0.235264
1126.77	1.01761
1130.14	1.12069
1133.52	0.85338
1136.89	4.18682
1140.27	2.30738
1143.64	0.613949
1147.02	2.87975
1150.39	2.09131
1153.77	0.299397
1157.14	1.79109
1160.52	2.17376
1163.89	0.891804
1167.27	3.36961
1170.64	1.04133
1174.02	1.06051
1177.39	0.531185
1180.77	1.56425
1184.14	0.845402
1187.51	1.30056
1190.89	3.14518
1194.26	2.02551
1197.64	0.68399
1201.01	3.23439
1204.39	1.87578
1207.76	4.54689
1211.14	2.75683
1214.51	2.88754
1217.89	2.62136
1221.26	1.1709
1224.64	1.27243
1228.01	1.37971
1231.39	0.083963
1234.76	2.83464
1238.14	3.70927
1241.51	4.09579
1244.89	2.77363
1248.26	2.8415
1251.64	0.534408
1255.01	4.08054
1258.38	1.98643
1261.76	5.20269
1265.13	3.54208
1268.51	5.11074
1271.88	1.08467
1275.26	2.75714
1278.63	3.14398
1282.01	1.43495
1285.38	0
