Measurement: Raman, 780 nm, unoriented, Raman Data RAW
Mineral: Zalesiite
Rruff sample: R060228
Ideal chemistry: Cu^2+^_6_Ca(As^5+^O_4_)_2_(As^5+^O_3_OH)(OH)_6_3H_2_O
Locality: Hilarion mine, near Kamareza, Laurium, Attica Penninsula, Greece
Source: Michael Scott
Description: Radiating light blue acicular crystals
Measured chemistry: (Ca_0.53_La_0.22_Nd_0.14_Y_0.11_)_Σ=1_(Cu^2+^_5.55_Fe_0.25_Zn_0.20_)_Σ=6_(As_1.00_O_4_)_2_(As_1.00_O_3.47_(OH)_0.53_)(OH)_6_·3H_2_O; OH estimated by charge balance; H_2_O by difference;
Raman shift (cm-1)	intensity
91.8272	1389.13
95.202	1472.06
98.5768	1505.7
101.952	1492.9
105.326	1496.85
108.701	1499.41
112.076	1505.51
115.451	1514.04
118.826	1517
122.201	1526.02
125.575	1529.75
128.95	1536.89
132.325	1543.47
135.7	1552.72
139.075	1561.61
142.449	1569.86
145.824	1574.55
149.199	1584.87
152.574	1598.3
155.949	1604.84
159.323	1616.65
162.698	1622.16
166.073	1629.06
169.448	1648.53
172.823	1652.71
176.198	1655.69
179.572	1669.67
182.947	1680.87
186.322	1694.55
189.697	1704.85
193.072	1718.63
196.446	1729.26
199.821	1743.12
203.196	1753.95
206.571	1766.81
209.946	1776.01
213.321	1799.05
216.695	1812.62
220.07	1827.44
223.445	1848.58
226.82	1860.8
230.195	1878.51
233.569	1898.17
236.944	1908.22
240.319	1923.73
243.694	1951.54
247.069	1966.56
250.444	1980.02
253.818	1997.25
257.193	2010.81
260.568	2034.31
263.943	2056.47
267.318	2073.8
270.692	2095.59
274.067	2111.1
277.442	2133.49
280.817	2159.57
284.192	2180.89
287.567	2202.34
290.941	2228.63
294.316	2248.42
297.691	2269.39
301.066	2286.2
304.441	2310.02
307.815	2340.3
311.19	2351.14
314.565	2366.55
317.94	2390.56
321.315	2404.59
324.69	2418.53
328.064	2434.37
331.439	2446.78
334.814	2456.49
338.189	2470.17
341.564	2485.67
344.938	2494.98
348.313	2509.89
351.688	2507.53
355.063	2516.22
358.438	2528.84
361.812	2532.34
365.187	2540.93
368.562	2549.32
371.937	2560.31
375.312	2560.8
378.687	2560.3
382.061	2571.67
385.436	2571.23
388.811	2578.3
392.186	2583.24
395.561	2582.77
398.935	2584.46
402.31	2588.51
405.685	2591.19
409.06	2587.12
412.435	2587.56
415.81	2587.2
419.184	2587.18
422.559	2591.94
425.934	2590.33
429.309	2588.69
432.684	2588.41
436.058	2579.75
439.433	2579.34
442.808	2574.99
446.183	2571.43
449.558	2573.91
452.933	2570.74
456.307	2557.07
459.682	2549.74
463.057	2545.49
466.432	2539.28
469.807	2534.07
473.181	2529.98
476.556	2521.91
479.931	2512.88
483.306	2503.44
486.681	2499.12
490.055	2491.66
493.43	2486.07
496.805	2476.97
500.18	2463.74
503.555	2454.24
506.93	2445.41
510.304	2446.14
513.679	2436.89
517.054	2428.36
520.429	2420.88
523.804	2417.54
527.178	2410.8
530.553	2401.85
533.928	2394.19
537.303	2394.17
540.678	2380.76
544.053	2374.17
547.427	2367.87
550.802	2365.25
554.177	2367.2
557.552	2365.29
560.927	2362.11
564.302	2348.07
567.676	2349.95
571.051	2348.39
574.426	2344.75
577.801	2341.29
581.176	2337.52
584.55	2327.55
587.925	2329.25
591.3	2325.77
594.675	2325.65
598.05	2326.53
601.424	2320.5
604.799	2320.3
608.174	2315.64
611.549	2317.81
614.924	2313.81
618.298	2313.18
621.673	2314.68
625.048	2315.67
628.423	2314.15
631.798	2308.37
635.173	2306.37
638.547	2306.04
641.922	2304.5
645.297	2307.01
648.672	2304.88
652.047	2302.95
655.422	2293.75
658.796	2301.55
662.171	2293.73
665.546	2294.06
668.921	2302.65
672.296	2295.96
675.67	2299.59
679.045	2293.74
682.42	2287.5
685.795	2287.24
689.17	2284.67
692.544	2288.9
695.919	2286.61
699.294	2289.7
702.669	2286.09
706.044	2283.06
709.419	2290.55
712.793	2280.74
716.168	2284.89
719.543	2276.31
722.918	2275.14
726.293	2280.81
729.668	2279.45
733.042	2286.25
736.417	2272.32
739.792	2275.21
743.167	2275.56
746.542	2266.67
749.916	2273.19
753.291	2272.06
756.666	2260.24
760.041	2256.48
763.416	2255.87
766.79	2257.77
770.165	2258.41
773.54	2262.85
776.915	2255.67
780.29	2262.32
783.665	2256.73
787.039	2261.89
790.414	2262.39
793.789	2272.83
797.164	2266.7
800.539	2255.03
803.913	2253.66
807.288	2263.03
810.663	2266.04
814.038	2261.79
817.413	2263.91
820.788	2260.34
824.162	2259.84
827.537	2257.7
830.912	2251.82
834.287	2251.27
837.662	2254.66
841.036	2254.91
844.411	2250.05
847.786	2249.31
851.161	2256.38
854.536	2250.07
857.91	2247.93
861.285	2249.02
864.66	2253.39
868.035	2253.21
871.41	2252.66
874.784	2251.71
878.159	2246.17
881.534	2256.85
884.909	2264.63
888.284	2264.86
891.659	2259.88
895.033	2268.66
898.408	2267.26
901.783	2267.16
905.158	2273.21
908.533	2279.45
911.908	2272.95
915.282	2280.55
918.657	2281.33
922.032	2287.81
925.407	2286.23
928.782	2293.54
932.156	2304.04
935.531	2303.43
938.906	2305.54
942.281	2319.54
945.656	2320.38
949.03	2326.91
952.405	2327.44
955.78	2331.41
959.155	2337.85
962.53	2346.89
965.905	2342.63
969.279	2349.46
972.654	2351.54
976.029	2356.23
979.404	2355.66
982.779	2369.11
986.154	2374.74
989.528	2387.37
992.903	2393.96
996.278	2405.75
999.653	2416.23
1003.03	2427.76
1006.4	2431.88
1009.78	2440.74
1013.15	2449.84
1016.53	2465.16
1019.9	2467.88
1023.28	2479.29
1026.65	2484.79
1030.03	2484.01
1033.4	2497.95
1036.78	2507.81
1040.15	2512.94
1043.53	2526.3
1046.9	2532.26
1050.28	2543.25
1053.65	2547.39
1057.03	2555.31
1060.4	2567.29
1063.77	2577.91
1067.15	2587.1
1070.52	2595.14
1073.9	2601.07
1077.27	2609.19
1080.65	2614.23
1084.02	2638.12
1087.4	2643.66
1090.77	2653.69
1094.15	2668.85
1097.52	2672.26
1100.9	2680.13
1104.27	2694.12
1107.65	2706.67
1111.02	2725.16
1114.4	2724.42
1117.77	2745.35
1121.15	2760.35
1124.52	2780.11
1127.9	2794.74
1131.27	2810.68
1134.64	2818.68
1138.02	2835.47
1141.39	2857.42
1144.77	2868.08
1148.14	2887.16
1151.52	2897.67
1154.89	2922.12
1158.27	2930.33
1161.64	2953.03
1165.02	2972.87
1168.39	2988.88
1171.77	3002.1
1175.14	3024.58
1178.52	3045.54
1181.89	3060.2
1185.27	3074.84
1188.64	3096.42
1192.02	3125.89
1195.39	3134.8
1198.77	3152.93
1202.14	3176.64
1205.52	3198.7
1208.89	3204.92
1212.27	3232.91
1215.64	3244.8
1219.02	3260.16
1222.39	3284.28
1225.77	3317.54
1229.14	3337.37
1232.52	3356.87
1235.89	3382.54
1239.27	3400.6
1242.64	3415.88
1246.01	3454.91
1249.39	3458.47
1252.76	3480.82
1256.14	3508.6
1259.51	3533.89
1262.89	3553.61
1266.26	3581.91
1269.64	3609.18
1273.01	3635.23
1276.39	3651.57
1279.76	3671.46
1283.14	3716.09
