Measurement: Raman, 785 nm, unoriented, Raman Data Processed
Mineral: Zektzerite
Rruff sample: R070485
Ideal chemistry: NaLiZr^4+^Si_6_O_15_
Locality: Washington Pass, Golden Horn Batholith, Okanogan County, Washington, USA
Source: Michael Scott
Description: Pale pink to colorless hexagonal prismatic crystal fragments
Measured chemistry: Na_1.00_Li_1.00_(Zr_0.97_Ti_0.02_Hf_0.01_)_Î£=1_Si_6.00_O_15_; trace amounts of Al and Fe; Li_2_O estimated by difference
Raman shift (cm-1)	intensity
172.504	0
175.397	90.0391
178.289	467.219
181.182	716.84
184.075	911.512
186.968	853.32
189.86	1071.84
192.753	1031.46
195.646	697.555
198.538	315.773
201.431	27.207
204.324	0.730469
207.216	59.2734
210.109	30.3203
213.002	405.301
215.894	601.473
218.787	1141.46
221.68	1735.07
224.573	2148.82
227.465	2258.79
230.358	2387.34
233.251	2656.79
236.143	3029.43
239.036	3299.2
241.929	3340.92
244.821	3429.41
247.714	3261.21
250.607	2766.67
253.5	2701.91
256.392	2483.99
259.285	2251.3
262.178	1940.47
265.07	1364.89
267.963	1083.44
270.856	788.191
273.748	656.203
276.641	633.769
279.534	596.574
282.427	595.254
285.319	611.121
288.212	476.695
291.105	142.356
293.997	23.3594
296.89	13.7148
299.783	84.8398
302.675	25.8594
305.568	118.195
308.461	213.637
311.354	68.9688
314.246	83.043
317.139	66.9375
320.032	334.598
322.924	765.137
325.817	1030.09
328.71	1557.19
331.603	1853.57
334.495	1964.3
337.388	2384.34
340.281	2840.12
343.173	3116.53
346.066	3540.75
348.959	3809.41
351.851	4203.25
354.744	4456.69
357.637	4532.15
360.529	4493.56
363.422	4276.45
366.315	3922.3
369.208	3736.69
372.1	3337.58
374.993	2669.56
377.886	2259.88
380.778	1820.87
383.671	1495.53
386.564	1189.07
389.457	875.41
392.349	785.031
395.242	632.902
398.135	729.191
401.027	457.176
403.92	293.699
406.813	171.328
409.705	136.434
412.598	164.266
415.491	113.367
418.384	53.6289
421.276	50.3672
424.169	91.8672
427.062	84.4922
429.954	76.5234
432.847	292.172
435.74	556.219
438.632	1175.74
441.525	1117.54
444.418	1243.43
447.31	1345.77
450.203	1601.95
453.096	1348.71
455.988	1274.23
458.881	968.043
461.774	988.957
464.667	1062.04
467.559	1091.8
470.452	1062.75
473.345	863.578
476.237	1153.36
479.13	1210.59
482.023	950.41
484.916	542.188
487.808	467.477
490.701	307.922
493.594	195.789
496.486	109.973
499.379	55.7734
502.272	19.832
505.164	177.656
508.057	82.2461
510.95	174.828
513.842	116.102
516.735	13.9453
519.628	27.0508
522.521	69.6875
525.413	23.5742
528.306	133.211
531.199	115.465
534.091	218.324
536.984	400.648
539.877	444.769
542.769	213.156
545.662	228.883
548.555	249.633
551.448	470.453
554.34	542.262
557.233	547.805
560.126	540.996
563.018	469.07
565.911	426.547
568.804	465.473
571.697	548.777
574.589	580.5
577.482	674.352
580.375	582.738
583.267	676.211
586.16	755.828
589.053	527.203
591.945	617.883
594.838	568.481
597.731	603.856
600.624	762.309
603.516	654.578
606.409	665.566
609.302	449.258
612.194	369.285
615.087	437.223
617.98	374.68
620.872	576.41
623.765	580.309
626.658	562.856
629.551	497.512
632.443	566.129
635.336	493.387
638.229	444.133
641.121	590.879
644.014	561.801
646.907	677.602
649.799	609.188
652.692	485.852
655.585	548.023
658.477	624.305
661.37	308.594
664.263	442.547
667.156	340.777
670.048	290.805
672.941	334.191
675.834	244.93
678.726	12.6797
681.619	99.4453
684.512	141.016
687.404	20.0391
690.297	131.559
693.19	7.17578
696.083	15.7109
698.975	132.543
701.868	16.8008
704.761	101.68
707.653	59.8516
710.546	2.48828
713.439	95.8516
716.332	61.8594
719.224	58.2539
722.117	264.519
725.01	1.07422
727.902	10.7422
730.795	31.0664
733.688	110.488
736.58	175.414
739.473	96.4961
742.366	240
745.259	218.723
748.151	81.0273
751.044	68.5117
753.937	326.231
756.829	151.875
759.722	293.144
762.615	299.402
765.507	305.144
768.4	314.012
771.293	367.496
774.186	394.504
777.078	284.777
779.971	447.473
782.864	442.66
785.756	283.473
788.649	459.82
791.542	294.32
794.434	427.129
797.327	272.941
800.22	269.156
803.112	289.137
806.005	388.406
808.898	535.637
811.79	380.297
814.683	371.523
817.576	376.598
820.469	406.238
823.361	263.375
826.254	197.148
829.147	272.707
832.039	232.34
834.932	228.793
837.825	186.434
840.717	51.6328
843.61	63.6055
846.503	6.48828
849.396	187.738
852.288	133.309
855.181	6.58203
858.074	4.38281
860.966	117.891
863.859	37.625
866.752	97.7188
869.644	32.1211
872.537	59.957
875.43	125.035
878.323	231.637
881.215	234.125
884.108	77.1953
887.001	240.285
889.893	75.7305
892.786	150.695
895.679	96.3555
898.572	121.965
901.464	131.18
904.357	103.352
907.25	147.586
910.142	190.406
913.035	202.125
915.928	11.4844
918.82	2.40625
921.713	114.066
924.606	29.9023
927.499	7.40234
930.391	108.301
933.284	158.356
936.177	57.7891
939.069	45.3789
941.962	50.3438
944.855	107.223
947.747	104.906
950.64	122.785
953.533	223.277
956.426	315.598
959.318	236.082
962.211	308.777
965.104	255.191
967.996	208
970.889	294.223
973.782	299.699
976.674	415.32
979.567	663.301
982.46	750.629
985.352	850.352
988.245	800.465
991.138	570.242
994.031	366.875
996.923	180.644
999.816	115.75
1002.71	165.371
1005.6	313.258
1008.49	182.195
1011.39	108.273
1014.28	15.3789
1017.17	132.676
1020.07	128.707
1022.96	134.523
1025.85	165.398
1028.74	99.7266
1031.64	291.188
1034.53	14.3828
1037.42	9.95703
1040.31	97.3203
1043.21	188.106
1046.1	152.062
1048.99	36.9688
1051.88	95.2578
1054.78	136.242
1057.67	230.18
1060.56	54.3438
1063.45	151.426
1066.35	107.871
1069.24	6.00781
1072.13	191.84
1075.03	231.262
1077.92	85.9219
1080.81	4.39453
1083.7	89.8828
1086.6	13.6445
1089.49	171.246
1092.38	168.574
1095.28	140.894
1098.17	151.477
1101.06	135.805
1103.95	40.8477
1106.85	6.01953
1109.74	55.4023
1112.63	90.125
1115.52	196.781
1118.42	343.488
1121.31	392.922
1124.2	454.902
1127.1	407.797
1129.99	310.984
1132.88	326.703
1135.77	316.981
1138.67	273.914
1141.56	260.332
1144.45	111.402
1147.34	142.699
1150.24	132.609
1153.13	144.957
1156.02	40.8945
1158.91	108.109
1161.81	199.184
1164.7	264.043
1167.59	306.496
1170.48	225.305
1173.38	199.727
1176.27	155.293
1179.16	51.75
1182.06	210.918
1184.95	92.3398
1187.84	86.6289
1190.73	148.137
1193.63	238.016
1196.52	195.961
1199.41	199.668
1202.31	345.762
1205.2	18.7305
1208.09	174.754
1210.98	238.828
1213.88	205.711
1216.77	113.285
1219.66	73.2734
1222.55	110.375
1225.45	230.727
1228.34	137.414
1231.23	83.25
1234.12	48.2656
1237.02	142.203
1239.91	128.816
1242.8	31.9492
1245.69	20.2227
1248.59	178.684
1251.48	56.8008
1254.37	128.742
1257.27	90.8984
1260.16	36.2695
1263.05	48.9844
1265.94	58.6836
