Measurement: Raman, 532 nm, unoriented, Raman Data Processed
Mineral: Zeophyllite
Rruff sample: R060150
Ideal chemistry: Ca_13_Si_10_O_28_(OH)_2_F_8_6H_2_O
Locality: Radzein, near Teplitz, Bohemia, Czech Republic
Source: University of Arizona Mineral Museum
Description: Spherical aggregates of white platy crystals
Measured chemistry: (Ca_12.67_Al_0.33_)_Σ=13_(Si_9.67_Al_0.33_)_10_O_28_F_10_·6H_2_O
Raman shift (cm-1)	intensity
93.6401	0
97.0149	1388.53
100.39	51.3438
103.765	83.5
107.139	2001.25
110.514	4911.72
113.889	6307.31
117.264	6636.69
120.639	6424.16
124.013	7080.78
127.388	6748.88
130.763	7967.34
134.138	10016.1
137.513	7036.62
140.888	4566.75
144.262	2933.5
147.637	2232.81
151.012	1871.38
154.387	2092.56
157.762	1753.28
161.137	2059.56
164.511	2727.81
167.886	2796.03
171.261	2825.22
174.636	2663.97
178.011	2491.53
181.385	2019.75
184.76	2157.81
188.135	2273.62
191.51	3111.84
194.885	2658.88
198.26	2992.91
201.634	2389.62
205.009	1194.41
208.384	212.938
211.759	546.219
215.133	361
218.508	786.906
221.883	766.188
225.258	889.562
228.633	1405.41
232.008	438.469
235.382	1598.41
238.757	3643.25
242.132	4485.09
245.507	3631.75
248.882	2214.31
252.256	1605.56
255.631	1641.22
259.006	1875.53
262.381	1734.09
265.756	1617.22
269.131	1330.25
272.505	2761.31
275.88	3317.06
279.255	3349.38
282.63	2696
286.005	2499.44
289.38	2427.09
292.754	1962.09
296.129	852.938
299.504	210.375
302.879	407.062
306.254	274.094
309.628	1294.47
313.003	1461.72
316.378	960.875
319.753	624.188
323.128	1506.5
326.502	1896.25
329.877	1542.12
333.252	825.812
336.627	1572.34
340.002	2255.84
343.377	2181.25
346.751	1706.16
350.126	1359.84
353.501	1018.16
356.876	1293.5
360.251	2409.78
363.625	3438.38
367	3542.34
370.375	1699.47
373.75	1438.66
377.125	2240.19
380.5	2439.5
383.874	2481.03
387.249	2089.75
390.624	956.844
393.999	713.594
397.374	65.375
400.748	911.406
404.123	1812.31
407.498	494.094
410.873	259.531
414.248	870.594
417.623	2551.97
420.997	3522.94
424.372	1984.81
427.747	904.75
431.122	219.469
434.497	153.094
437.872	360.062
441.246	2026.31
444.621	1892.38
447.996	1728.06
451.371	1873.12
454.745	2758.56
458.12	3127.31
461.495	2651.38
464.87	2734.5
468.245	2936.88
471.62	2953.06
474.994	1471.19
478.369	172.125
481.744	616.875
485.119	2518.31
488.494	3252.25
491.868	3086.12
495.243	1885.75
498.618	1402.69
501.993	1269.69
505.368	633.125
508.743	719.125
512.117	1140.56
515.492	932.625
518.867	903.875
522.242	1014.5
525.617	678.625
528.991	551.875
532.366	1044.81
535.741	1067.81
539.116	642.875
542.491	140.625
545.866	1067.62
549.24	1802.69
552.615	756.438
555.99	317.938
559.365	206.25
562.74	1240.31
566.115	917.312
569.489	117.625
572.864	217.938
576.239	794.125
579.614	1065.88
582.989	660.812
586.363	2360.44
589.738	1175.75
593.113	884.125
596.488	193.875
599.863	14.1875
603.237	305.062
606.612	340.062
609.987	1294.62
613.362	1582.44
616.737	1519.12
620.112	880.438
623.486	877.25
626.861	1227.31
630.236	1305.06
633.611	836.5
636.986	797.062
640.361	1307.69
643.735	1913.56
647.11	3138.62
650.485	5568.44
653.86	7873.69
657.235	10364.5
660.609	13705.1
663.984	16179.6
667.359	12299.4
670.734	7097.06
674.109	3836.56
677.484	1583.69
680.858	1612.94
684.233	383.125
687.608	356.062
690.983	896.5
694.357	179.25
697.732	218.812
701.107	241.625
704.482	669.875
707.857	1424.06
711.232	1229.38
714.606	1185.62
717.981	1713.75
721.356	2045.38
724.731	3084.75
728.106	3762.44
731.481	2487.62
734.855	2857.38
738.23	3401.88
741.605	3670.06
744.98	4089
748.355	5142.94
751.729	6304.44
755.104	4117.31
758.479	2896.44
761.854	3006.19
765.229	2627.88
768.604	2093.62
771.978	2429.25
775.353	2165.12
778.728	1284.38
782.103	1779.12
785.478	2758.5
788.852	1623.88
792.227	1145.75
795.602	657.625
798.977	399.438
802.352	955.562
805.726	2244.81
809.101	2539.69
812.476	1605.25
815.851	1828.75
819.226	2362.06
822.601	2523.5
825.975	779.062
829.35	29.6875
832.725	82.9375
836.1	349.5
839.475	872.188
842.85	1812.25
846.224	2127.75
849.599	1178.5
852.974	796.375
856.349	1683.62
859.724	2365.62
863.098	2214.94
866.473	620.562
869.848	1119.5
873.223	1971.44
876.598	781.75
879.972	569.312
883.347	177.875
886.722	95.1875
890.097	1143.44
893.472	2844.94
896.847	2514.19
900.221	3386.94
903.596	2724.06
906.971	2470.06
910.346	1773.38
913.721	1513.44
917.096	1463.44
920.47	1701.25
923.845	2791
927.22	2831.88
930.595	2752.5
933.97	2937.62
937.344	2441.69
940.719	2335.56
944.094	3020.5
947.469	2429
950.844	1934.56
954.218	1023.94
957.593	557.062
960.968	459.688
964.343	1621
967.718	2987.94
971.092	2427.19
974.467	2143.81
977.842	1873.62
981.217	1969.25
984.592	2738.38
987.967	3002.06
991.341	3166.81
994.716	3312.81
998.091	3643.75
1001.47	4408.06
1004.84	4045.06
1008.22	4424.75
1011.59	5408.94
1014.97	6511.06
1018.34	6653.81
1021.72	6559.06
1025.09	7230.81
1028.46	9087.56
1031.84	7805.31
1035.21	7379.88
1038.59	6865.44
1041.96	5925.75
1045.34	5103.56
1048.71	2295.56
1052.09	2504.75
1055.46	1853.19
1058.84	40.6875
1062.21	13.875
1065.59	801.75
1068.96	787.812
1072.34	380.312
1075.71	797.812
1079.09	338.875
1082.46	486.938
1085.84	844.25
1089.21	555.312
1092.59	799.625
1095.96	334.812
1099.34	847.875
1102.71	583.438
1106.09	578.25
1109.46	938.062
1112.84	1242.56
1116.21	1098.44
1119.58	1511.88
1122.96	1657.88
1126.33	343.062
1129.71	841.75
1133.08	273.625
1136.46	962.688
1139.83	961.688
1143.21	1848.75
1146.58	623.312
1149.96	1314.62
1153.33	3085.75
1156.71	3819.31
1160.08	2831.88
1163.46	2484.88
1166.83	2406.5
1170.21	2808.56
1173.58	2575.25
1176.96	3486.69
1180.33	3383.31
1183.71	3279.62
1187.08	4921.56
1190.46	4098.44
1193.83	3435.25
1197.2	3692.75
1200.58	1905.06
1203.95	2488.44
1207.33	3379.56
1210.7	3060.44
1214.08	1668.38
1217.45	2195.38
1220.83	2753.75
1224.2	1555.19
1227.58	277.812
1230.95	366.375
1234.33	586
1237.7	465
1241.08	1196.62
1244.45	1505.75
1247.83	1767.5
1251.2	3246.38
1254.58	2568.38
1257.95	2612.62
1261.33	2147.81
1264.7	488.812
1268.08	458.438
1271.45	460.938
1274.83	837.125
1278.2	793.688
1281.58	530.5
1284.95	923.75
1288.33	1540.19
1291.7	535.188
1295.08	1259.81
1298.45	223.5
1301.83	0
