Measurement: Raman, 532 nm, unoriented, Raman Data Processed
Mineral: Zharchikhite
Rruff sample: R061136
Ideal chemistry: Al(OH)_2_F
Locality: Zharchikha deposit, Buryatia, Russia
Source: Michael Scott
Description: White granular massive, co-type material
Raman shift (cm-1)	intensity
107.272	0
110.647	769.697
114.022	279.4
117.397	219.243
120.772	1089.06
124.147	3924.61
127.521	7510.53
130.896	11708.2
134.271	15178.9
137.646	16930.6
141.021	17763.6
144.395	19136.7
147.77	20990.3
151.145	22538
154.52	22591.2
157.895	22128.7
161.27	21913.5
164.644	21737.8
168.019	21090.8
171.394	20237.8
174.769	19067
178.144	17854.2
181.518	16950.2
184.893	16113.7
188.268	15059.2
191.643	14098.2
195.018	13164.5
198.393	12130.3
201.767	11191.5
205.142	10291.5
208.517	9409.09
211.892	8378.41
215.267	7617.43
218.642	6793.84
222.016	6213.81
225.391	5562.53
228.766	4738.91
232.141	4241.31
235.516	3620.38
238.89	3141.7
242.265	2705.38
245.64	2313.92
249.015	2008.25
252.39	1566.59
255.764	1280.36
259.139	925.383
262.514	784.031
265.889	780.352
269.264	232.641
272.639	302.57
276.013	86.1641
279.388	57.7656
282.763	183.148
286.138	17.2266
289.513	430.625
292.887	248.797
296.262	112.766
299.637	178.766
303.012	118.211
306.387	224.781
309.762	198.844
313.136	156.281
316.511	31.3594
319.886	8.61719
323.261	131.57
326.636	90.5469
330.01	417.125
333.385	548.172
336.76	387.211
340.135	600.664
343.51	770.859
346.885	721.148
350.259	632.016
353.634	1021.29
357.009	1018.14
360.384	793.727
363.759	700.609
367.134	898.469
370.508	843.055
373.883	776.414
377.258	1110.19
380.633	828.367
384.008	737.414
387.382	629.742
390.757	764.312
394.132	686.977
397.507	992.297
400.882	730.375
404.257	936.305
407.631	791.938
411.006	510.891
414.381	697.953
417.756	842.078
421.131	752.375
424.505	622.102
427.88	676.992
431.255	586.305
434.63	554.367
438.005	775.93
441.38	475.984
444.754	646.344
448.129	464.117
451.504	612.094
454.879	428.125
458.253	593.148
461.628	536.742
465.003	371.836
468.378	440.977
471.753	453.32
475.128	291.836
478.502	462.875
481.877	366.625
485.252	186.695
488.627	351.734
492.002	212.203
495.377	230.797
498.751	173.047
502.126	32.2734
505.501	277.352
508.876	264.523
512.251	91.5781
515.625	77.4531
519	83.8281
522.375	72.2812
525.75	92.0312
529.125	290.742
532.5	14.0703
535.874	33.2656
539.249	118.188
542.624	8.78906
545.999	246.141
549.374	217.852
552.748	0.148438
556.123	2.78125
559.498	133.641
562.873	121.406
566.248	102.211
569.622	53.5547
572.997	111.344
576.372	246.938
579.747	157.25
583.122	91.6406
586.497	20.3125
589.871	244.938
593.246	101.328
596.621	141.703
599.996	480.562
603.371	388.578
606.745	571.625
610.12	541.625
613.495	284.094
616.87	260.344
620.245	436.562
623.62	211.547
626.994	793.562
630.369	804.266
633.744	877.062
637.119	965.172
640.494	878.344
643.869	1000.38
647.243	1141.8
650.618	1257.89
653.993	1117.03
657.368	1054.58
660.743	1103.98
664.117	1063.02
667.492	1222.39
670.867	650.641
674.242	966.828
677.617	658.047
680.991	836.766
684.366	548.828
687.741	592.281
691.116	544.641
694.491	480.172
697.866	336.969
701.24	349.141
704.615	451.781
707.99	399.703
711.365	216.391
714.74	221.234
718.115	299.922
721.489	14.9062
724.864	212.75
728.239	124.547
731.614	197.266
734.989	56.3594
738.363	71.5625
741.738	205.516
745.113	152.484
748.488	135.891
751.863	178.406
755.237	312.25
758.612	173.172
761.987	14.3594
765.362	167.891
768.737	82.9062
772.112	54.3125
775.486	315.891
778.861	198.516
782.236	486.875
785.611	317.406
788.986	134.047
792.361	207.797
795.735	208.109
799.11	135.438
802.485	717.797
805.86	484.422
809.235	152.391
812.609	417.031
815.984	315.359
819.359	311.062
822.734	290.062
826.109	331.344
829.484	254.078
832.858	139.781
836.233	244.484
839.608	61
842.983	166.188
846.357	322.281
849.732	552.094
853.107	191.156
856.482	222.922
859.857	406.859
863.232	128.094
866.606	115.719
869.981	319.438
873.356	98.7812
876.731	238.125
880.106	58.0781
883.481	423.203
886.855	476.672
890.23	291.328
893.605	314.703
896.98	27.9531
900.355	116.781
903.729	471.375
907.104	234.906
910.479	408.891
913.854	195.266
917.229	351.734
920.604	379.5
923.978	257.75
927.353	393.391
930.728	307
934.103	191.094
937.478	319.234
940.852	253.891
944.227	420.828
947.602	270.219
950.977	378.844
954.352	225.891
957.727	347.203
961.101	470.797
964.476	73
967.851	160.766
971.226	385.516
974.601	103
977.976	308.406
981.35	269.953
984.725	294.953
988.1	352.281
991.475	117.984
994.85	180.422
998.224	203.719
1001.6	387.719
1004.97	282.734
1008.35	58.8906
1011.72	47.375
1015.1	489.203
1018.47	522.219
1021.85	0.28125
1025.22	28.7188
1028.6	268.469
1031.97	276.875
1035.35	235.922
1038.72	428.422
1042.1	327.094
1045.47	200.141
1048.85	95.3125
1052.22	200.594
1055.6	201.578
1058.97	583.438
1062.35	509.328
1065.72	322
1069.1	499.359
1072.47	174.562
1075.85	303.844
1079.22	294.188
1082.6	39.375
1085.97	129.391
1089.34	246.172
1092.72	329.609
1096.09	322.297
1099.47	415.688
1102.84	75.7344
1106.22	100.031
1109.59	540.875
1112.97	120.172
1116.34	270.844
1119.72	548.344
1123.09	296.484
1126.47	363.125
1129.84	605.609
1133.22	294.25
1136.59	34
1139.97	227.938
1143.34	361.812
1146.72	227.922
1150.09	151.812
1153.47	381.562
1156.84	414.781
1160.22	733.484
1163.59	490.938
1166.96	347.531
1170.34	281.156
1173.71	234.359
1177.09	188.469
1180.46	111.578
1183.84	138.75
1187.21	507.969
1190.59	217.422
1193.96	230.422
1197.34	480.312
1200.71	28.0625
1204.09	96.8438
1207.46	183.422
1210.84	48.4062
1214.21	12.875
1217.59	135.156
1220.96	132.391
1224.34	359.234
1227.71	244.812
1231.09	481.328
1234.46	108.578
1237.84	184.438
1241.21	491.406
1244.59	552.016
1247.96	92.7656
1251.34	782.797
1254.71	394.672
1258.09	881.641
1261.46	326.156
1264.84	518.016
1268.21	520.391
1271.59	439.5
1274.96	532.828
1278.33	628.375
1281.71	486.047
1285.08	919.812
1288.46	821.594
1291.83	778.422
1295.21	706.469
1298.58	322.719
1301.96	509.281
1305.33	327.156
1308.71	424.094
1312.08	760.297
1315.46	438.062
1318.83	0
