Measurement: Raman, 785 nm, unoriented, Raman Data Processed
Mineral: Zharchikhite
Rruff sample: R061136
Ideal chemistry: Al(OH)_2_F
Locality: Zharchikha deposit, Buryatia, Russia
Source: Michael Scott
Description: White granular massive, co-type material
Raman shift (cm-1)	intensity
117.935	0
120.828	770.163
123.721	158.272
126.613	323.066
129.506	790.835
132.399	1288.92
135.291	454.398
138.184	776.193
141.077	3519.06
143.97	7868.73
146.862	11810.7
149.755	13717.6
152.648	13366.2
155.54	12492.8
158.433	12560.2
161.326	13906.5
164.218	15487.6
167.111	16798.9
170.004	17307.5
172.897	17326.7
175.789	16892.9
178.682	16556.7
181.575	16344.6
184.467	16038.6
187.36	15672.6
190.253	15032.4
193.145	14840.6
196.038	14366.4
198.931	13697
201.823	13186
204.716	12331.5
207.609	11441.6
210.501	10691.8
213.394	9886.94
216.287	9425.94
219.18	8925.84
222.072	8449.85
224.965	7591.88
227.858	6952.55
230.75	6293.91
233.643	5748.63
236.536	5335.31
239.429	4903.16
242.321	4559.3
245.214	4148.17
248.107	3446.71
250.999	3205.24
253.892	2966.85
256.785	2624.92
259.677	2499.93
262.57	2569.26
265.463	2204.95
268.356	1771.16
271.248	1261.69
274.141	1060.15
277.034	745.125
279.926	521.398
282.819	446.188
285.712	457.961
288.604	363.242
291.497	92.4922
294.39	178.906
297.283	321.414
300.175	276.422
303.068	296.68
305.961	9.75
308.853	227.789
311.746	59.7188
314.639	188.594
317.531	294.789
320.424	219.039
323.317	118.336
326.209	181.586
329.102	342.531
331.995	458.898
334.888	657.383
337.78	400.352
340.673	102.953
343.566	176.25
346.458	337.047
349.351	620.961
352.244	422.055
355.137	585.336
358.029	493.555
360.922	499.336
363.815	487.164
366.707	598.727
369.6	659.066
372.493	710.828
375.385	813.762
378.278	577.434
381.171	634.289
384.063	467.59
386.956	395.285
389.849	513.988
392.742	828.84
395.634	808.789
398.527	875.039
401.42	703.422
404.312	529.578
407.205	649.723
410.098	582.453
412.99	730.473
415.883	500.973
418.776	777.75
421.669	715.949
424.561	592.555
427.454	438.551
430.347	493.359
433.239	714.434
436.132	689.324
439.025	636.785
441.918	630.066
444.81	524.734
447.703	636.25
450.596	438.594
453.488	563.543
456.381	557.453
459.274	556.996
462.166	548.004
465.059	697.238
467.952	512.559
470.844	713.422
473.737	435.254
476.63	96.4258
479.523	296.961
482.415	301.43
485.308	340.469
488.201	276.648
491.093	429.773
493.986	199.965
496.879	12.4297
499.772	44.0234
502.664	13.9688
505.557	135.324
508.45	249.801
511.342	224.613
514.235	71.7383
517.128	98.6953
520.02	84.7539
522.913	50.6172
525.806	40.6094
528.698	15.1406
531.591	75.9648
534.484	108.219
537.377	58.5703
540.269	69.5
543.162	88.5039
546.055	57.9766
548.947	0.136719
551.84	13.0039
554.733	44.875
557.625	48.7227
560.518	50.1875
563.411	145.34
566.303	111.512
569.196	106.582
572.089	138.227
574.982	180.129
577.874	136.242
580.767	128.144
583.66	385.305
586.552	85.2539
589.445	126.527
592.338	125.914
595.231	148.086
598.123	191.816
601.016	193.887
603.909	243.25
606.801	136.504
609.694	232.891
612.587	292.332
615.479	22.6016
618.372	93.543
621.265	206.879
624.158	245.769
627.05	168.148
629.943	248.465
632.836	274.731
635.728	18.3242
638.621	105.621
641.514	133.301
644.406	81.2148
647.299	42.332
650.192	39.332
653.085	8.34766
655.977	92.7109
658.87	172.969
661.763	25.6406
664.655	48.7812
667.548	174.898
670.441	91.5195
673.333	20.9688
676.226	156.254
679.119	293.981
682.011	91.3047
684.904	83.6172
687.797	55.8789
690.69	247.027
693.582	95.0938
696.475	420.848
699.368	310.316
702.26	486.316
705.153	270.633
708.046	540.922
710.938	416.012
713.831	386.016
716.724	336.992
719.617	385.906
722.509	257.566
725.402	261.164
728.295	294.211
731.187	311.676
734.08	65.7695
736.973	374.703
739.865	295.223
742.758	200.644
745.651	231.383
748.544	313.086
751.436	339.031
754.329	192.348
757.222	173.5
760.114	154.664
763.007	127.656
765.9	134.715
768.793	3.88281
771.685	71.0859
774.578	95.082
777.471	53.0898
780.363	73.4102
783.256	112.731
786.149	168.305
789.041	217.519
791.934	244.668
794.827	22.6211
797.72	55.3164
800.612	140.262
803.505	168.852
806.398	32.5703
809.29	106.301
812.183	168.492
815.076	217.91
817.968	150.785
820.861	206.246
823.754	100.938
826.646	119.781
829.539	154.656
832.432	70.1328
835.325	57.2891
838.217	162.305
841.11	147.465
844.003	58.9258
846.895	147.215
849.788	91.8477
852.681	101.367
855.573	82.7656
858.466	12.2578
861.359	84.6992
864.252	208.93
867.144	190.664
870.037	49.0859
872.93	113.879
875.822	1.15234
878.715	133.711
881.608	104.121
884.5	52.7812
887.393	35.9883
890.286	211.281
893.179	194.898
896.071	58.4688
898.964	201.508
901.857	137.238
904.749	59.4805
907.642	142.809
910.535	300.812
913.428	178.469
916.32	322.656
919.213	169.402
922.106	143.269
924.998	136.617
927.891	101.41
930.784	205.25
933.676	201.32
936.569	183.602
939.462	105.406
942.355	127.731
945.247	24.9531
948.14	12.0508
951.033	9.63281
953.925	8.17578
956.818	114.535
959.711	111.668
962.603	90.707
965.496	61.1445
968.389	147.648
971.281	47.125
974.174	76.5234
977.067	87.4375
979.96	95.4062
982.852	20.3711
985.745	78.3438
988.638	63.3516
991.53	81.4141
994.423	128.644
997.316	171.445
1000.21	135.766
1003.1	219.625
1005.99	125.125
1008.89	226.82
1011.78	274.488
1014.67	155.41
1017.57	68.7617
1020.46	206.941
1023.35	46.9258
1026.24	107.613
1029.13	0.804688
1032.03	120.076
1034.92	63.8965
1037.81	8.58789
1040.71	188.137
1043.6	38.4707
1046.49	34.6777
1049.38	168.24
1052.28	194.039
1055.17	50.0449
1058.06	211.607
1060.95	179.674
1063.85	191.924
1066.74	145.188
1069.63	191.725
1072.53	146.287
1075.42	167.688
1078.31	48.1895
1081.2	191.18
1084.1	89.793
1086.99	35.4434
1089.88	109.545
1092.78	61.7969
1095.67	9.82617
1098.56	146.502
1101.45	83.9785
1104.35	248.26
1107.24	8.34961
1110.13	133.566
1113.02	120.998
1115.92	111.184
1118.81	108.551
1121.7	124.127
1124.59	115.184
1127.49	132.344
1130.38	54.5762
1133.27	98.8027
1136.16	191.371
1139.06	120.478
1141.95	68.1602
1144.84	146.699
1147.74	141.574
1150.63	215.887
1153.52	150.545
1156.41	97.541
1159.31	161.299
1162.2	57.3438
1165.09	103.814
1167.98	11.1367
1170.88	96.8086
1173.77	141.82
1176.66	113.084
1179.56	131.357
1182.45	35.1309
1185.34	2.5918
1188.23	68.1973
1191.13	63.1074
1194.02	126.441
1196.91	79.8672
1199.81	50.1133
1202.7	144.514
1205.59	81.8281
1208.48	121.469
1211.38	230.055
1214.27	37.4453
1217.16	5.77344
1220.05	166.434
1222.95	143.316
1225.84	49.6934
1228.73	251.377
1231.62	446.943
1234.52	154.58
1237.41	5.57812
1240.3	56.4473
1243.19	60.457
1246.09	0
