Measurement: Raman, 532 nm, unoriented, Raman Data Processed
Mineral: Zinc
Rruff sample: R070497
Ideal chemistry: Zn
Locality: Round Mountain area, Shasta County, California, USA
Source: James Shigley
Description: Grey, metallic crystal with irregular, platy structure
Raman shift (cm-1)	intensity
152.072	0
155.447	6.46802
158.822	12.4152
162.197	0.533234
165.572	0.760468
168.946	6.15668
172.321	20.8265
175.696	5.92456
179.071	15.3315
182.446	5.26947
185.821	18.0957
189.195	4.69415
192.57	21.2528
195.945	17.9673
199.32	21.5075
202.695	18.1592
206.07	23.509
209.444	17.6397
212.819	6.68646
216.194	3.10654
219.569	24.4029
222.944	6.33325
226.318	31.0277
229.693	15.1699
233.068	26.6738
236.443	8.38119
239.818	16.6598
243.192	38.5325
246.567	9.17743
249.942	23.5277
253.317	11.9226
256.692	6.51651
260.067	26.5687
263.441	17.8873
266.816	24.8197
270.191	14.0989
273.566	7.80212
276.941	27.2658
280.315	14.9364
283.69	13.8243
287.065	4.86316
290.44	8.58585
293.815	13.0662
297.19	8.60196
300.564	8.02957
303.939	23.2381
307.314	7.72199
310.689	13.8049
314.064	3.13464
317.438	6.28595
320.813	11.235
324.188	7.79886
327.563	7.72665
330.938	7.3103
334.313	17.3894
337.687	15.3278
341.062	9.23212
344.437	14.2988
347.812	0.020569
351.187	2.17896
354.562	1.15836
357.936	8.51752
361.311	9.01721
364.686	9.31308
368.061	12.3972
371.436	4.19565
374.81	8.63638
378.185	8.7338
381.56	10.9443
384.935	15.7577
388.31	4.5506
391.685	11.3651
395.059	20.5164
398.434	5.47348
401.809	1.45706
405.184	6.28104
408.559	5.17081
411.933	7.36777
415.308	0.123688
418.683	27.8216
422.058	6.93094
425.433	25.9234
428.808	10.4043
432.182	2.59238
435.557	20.5072
438.932	9.83591
442.307	20.7729
445.682	1.03229
449.056	11.6587
452.431	34.1352
455.806	21.9606
459.181	21.8036
462.556	1.82266
465.93	9.32144
469.305	4.39026
472.68	8.43207
476.055	16.7275
479.43	19.7598
482.805	27.9089
486.179	14.0277
489.554	4.26477
492.929	5.06677
496.304	21.9977
499.679	15.8408
503.053	7.68466
506.428	16.4874
509.803	12.0975
513.178	14.0368
516.553	18.3409
519.928	9.80225
523.302	13.3375
526.677	6.37314
530.052	6.93707
533.427	8.58221
536.802	13.471
540.177	10.8594
543.551	21.9332
546.926	13.6732
550.301	21.9274
553.676	18.6425
557.051	27.0793
560.425	24.5446
563.8	11.6909
567.175	21.9815
570.55	20.7059
573.925	28.2338
577.299	15.38
580.674	14.2208
584.049	16.984
587.424	9.08227
590.799	9.51263
594.174	11.9055
597.548	11.8433
600.923	12.6068
604.298	7.03818
607.673	16.3109
611.048	9.87949
614.423	11.191
617.797	7.60617
621.172	5.50629
624.547	3.48746
627.922	17.6945
631.297	22.0101
634.671	25.9726
638.046	19.5756
641.421	1.19125
644.796	5.83212
648.171	15.0404
651.545	3.70801
654.92	11.1406
658.295	5.51062
661.67	19.5585
665.045	3.93671
668.42	20.8455
671.794	13.8927
675.169	0.039734
678.544	5.0574
681.919	17.5536
685.294	12.4107
688.668	0.57132
692.043	20.3495
695.418	19.1653
698.793	10.8586
702.168	15.7841
705.543	17.4738
708.917	1.11273
712.292	19.2166
715.667	25.6264
719.042	5.39697
722.417	26.9
725.792	14.9675
729.166	20.4763
732.541	12.1668
735.916	25.7017
739.291	32.7106
742.666	0.328461
746.04	23.8483
749.415	7.94775
752.79	10.2402
756.165	31.012
759.54	16.9978
762.915	13.3527
766.289	19.4943
769.664	9.22723
773.039	9.7482
776.414	23.3127
779.789	33.2563
783.163	1.22824
786.538	26.4419
789.913	8.73203
793.288	11.5381
796.663	31.0503
800.038	17.5538
803.412	4.68546
806.787	15.5754
810.162	9.10877
813.537	17.3109
816.912	10.8052
820.286	23.1455
823.661	15.6
827.036	10.5666
830.411	25.0808
833.786	21.4898
837.16	29.3851
840.535	23.9062
843.91	5.86136
847.285	20.422
850.66	17.9112
854.035	21.9852
857.409	23.3351
860.784	16.0319
864.159	17.1918
867.534	10.1336
870.909	8.04288
874.284	26.6901
877.658	17.3827
881.033	9.18298
884.408	21.6599
887.783	19.2446
891.158	22.7847
894.533	14.1713
897.907	2.14264
901.282	13.3579
904.657	17.7268
908.032	13.1588
911.407	15.6994
914.781	10.1443
918.156	14.9772
921.531	20.0171
924.906	9.65851
928.281	1.61902
931.655	17.129
935.03	20.9559
938.405	13.1364
941.78	17.649
945.155	25.118
948.529	20.8638
951.904	15.9851
955.279	21.2877
958.654	13.6424
962.029	9.43951
965.404	1.0144
968.778	14.7312
972.153	7.04791
975.528	12.9567
978.903	2.61896
982.278	3.38236
985.653	11.6405
989.027	15.4947
992.402	9.90613
995.777	12.5956
999.152	13.5101
1002.53	4.94199
1005.9	5.2731
1009.28	27.4604
1012.65	17.3331
1016.03	29.7573
1019.4	22.5101
1022.78	32.4215
1026.15	24.0116
1029.53	15.093
1032.9	30.4104
1036.28	7.79514
1039.65	22.1604
1043.02	33.8372
1046.4	25.5872
1049.77	32.24
1053.15	26.6361
1056.52	22.3545
1059.9	7.67648
1063.27	11.2663
1066.65	6.87839
1070.02	21.8336
1073.4	32.4795
1076.77	11.7802
1080.15	29.4117
1083.52	21.1011
1086.9	2.10471
1090.27	31.0612
1093.65	3.68927
1097.02	6.2096
1100.4	1.45682
1103.77	13.4414
1107.15	0.587128
1110.52	12.5102
1113.9	11.4648
1117.27	16.6687
1120.64	16.4321
1124.02	23.6223
1127.39	18.0375
1130.77	29.5671
1134.14	14.3242
1137.52	12.7854
1140.89	30.246
1144.27	13.7274
1147.64	31.9152
1151.02	4.73257
1154.39	2.72705
1157.77	29.2328
1161.14	13.7757
1164.52	19.975
1167.89	10.1901
1171.27	27.5742
1174.64	12.3396
1178.02	6.85168
1181.39	5.13626
1184.77	9.86823
1188.14	1.76535
1191.52	13.0008
1194.89	29.5026
1198.27	23.8179
1201.64	10.08
1205.02	38.5293
1208.39	7.33246
1211.77	23.6338
1215.14	27.4057
1218.52	11.7216
1221.89	22.3817
1225.27	28.6831
1228.64	29.221
1232.01	7.08697
1235.39	20.6627
1238.76	21.3658
1242.14	18.7541
1245.51	22.95
1248.89	3.27563
1252.26	31.9775
1255.64	15.2941
1259.01	14.7844
1262.39	19.0757
1265.76	13.4726
1269.14	31.8403
1272.51	18.2652
1275.89	35.7717
1279.26	15.0885
1282.64	30.2557
1286.01	33.4779
1289.39	23.36
1292.76	15.6241
1296.14	25.7333
1299.51	24.2771
1302.88	21.6112
1306.26	21.4447
1309.63	14.2375
1313.01	1.22937
