Measurement: Raman, 532 nm, unoriented, Raman Data Processed
Mineral: Zincite
Rruff sample: R050419
Ideal chemistry: Zn^2+^O
Locality: Sterling Hill, Sussex County, New Jersey, USA
Source: Marcus Origlieri
Description: Deep red crystal associated with calcite
Measured chemistry: (Zn_0.99_Mn_0.01_)O
Raman shift (cm-1)	intensity
140.666	0
144.041	0.827175
147.416	0.436428
150.79	1.30397
154.165	1.63957
157.54	1.94866
160.915	1.96914
164.29	1.89482
167.664	1.54219
171.039	1.38139
174.414	1.45963
177.789	0.951803
181.164	0.44961
184.538	0.447039
187.913	0.478642
191.288	0.189106
194.663	0.405178
198.038	0.296997
201.412	0.613066
204.787	0.565876
208.162	0.531496
211.537	0.939959
214.912	1.28095
218.287	1.21918
221.661	2.6788
225.036	3.34689
228.411	3.69973
231.786	4.36844
235.161	5.67297
238.536	6.62323
241.91	7.01892
245.285	8.49387
248.66	7.83541
252.035	8.0403
255.41	7.80847
258.784	7.12835
262.159	5.09141
265.534	3.89083
268.909	3.08618
272.284	2.02078
275.659	1.3601
279.033	1.54516
282.408	2.29334
285.783	2.21684
289.158	3.10628
292.533	3.74656
295.907	4.17322
299.282	4.47298
302.657	5.90511
306.032	7.25669
309.407	8.59863
312.781	9.94092
316.156	11.0489
319.531	12.886
322.906	14.9568
326.281	17.5602
329.656	18.2548
333.03	18.4347
336.405	17.2514
339.78	16.8293
343.155	16.7545
346.53	16.9031
349.904	16.8638
353.279	16.5158
356.654	14.45
360.029	13.054
363.404	11.0993
366.779	10.001
370.153	9.31771
373.528	7.5894
376.903	6.36462
380.278	4.46566
383.653	3.18448
387.027	1.74847
390.402	0.013546
393.777	1.48904
397.152	2.27622
400.527	2.4744
403.901	2.79687
407.276	1.10872
410.651	2.1622
414.026	7.37831
417.401	16.5044
420.776	28.5426
424.15	43.7169
427.525	58.7209
430.9	76.8122
434.275	96.1833
437.65	92.601
441.024	55.1289
444.399	33.6903
447.774	28.1248
451.149	25.1721
454.524	23.145
457.899	21.6441
461.273	20.4789
464.648	19.3657
468.023	19.5986
471.398	20.2495
474.773	17.7462
478.147	15.6225
481.522	10.9793
484.897	8.66431
488.272	3.88632
491.647	0.861511
495.022	2.51906
498.396	3.58359
501.771	26.1475
505.146	66.2822
508.521	139.202
511.896	256.39
515.27	385.042
518.645	461.674
522.02	478.985
525.395	477.589
528.77	460.932
532.145	431.481
535.519	394.324
538.894	361.683
542.269	331.707
545.644	305.979
549.019	280.695
552.394	256.976
555.768	244.873
559.143	244.252
562.518	246.011
565.893	247.076
569.268	241.109
572.642	227.315
576.017	196.749
579.392	158.414
582.767	116.314
586.142	80.0535
589.516	46.4857
592.891	23.1316
596.266	7.9576
599.641	1.13735
603.016	2.09312
606.39	3.30798
609.765	2.48851
613.14	1.31316
616.515	0.680553
619.89	0.403858
623.265	2.51563
626.639	3.37565
630.014	5.55396
633.389	6.87836
636.764	8.21617
640.139	9.38543
643.514	10.548
646.888	11.8849
650.263	13.3518
653.638	14.4178
657.013	15.4865
660.388	14.9927
663.762	14.4805
667.137	12.9041
670.512	11.704
673.887	10.4925
677.262	8.77211
680.636	8.69901
684.011	7.21211
687.386	6.87854
690.761	6.27136
694.136	6.58365
697.511	5.81757
700.885	5.36618
704.26	4.86074
707.635	3.75994
711.01	3.60497
714.385	3.382
717.76	3.27143
721.134	2.17512
724.509	2.06825
727.884	1.06457
731.259	0.07198
734.634	0.509272
738.008	0.209183
741.383	0.011179
744.758	0.569883
748.133	0.276302
751.508	0.174711
754.882	0.316444
758.257	0.496847
761.632	0.013248
765.007	0.597334
768.382	1.06094
771.756	1.43927
775.131	1.6512
778.506	1.62967
781.881	1.30917
785.256	1.1846
788.631	0.754766
792.005	0.916893
795.38	1.12682
798.755	1.17424
802.13	0.901136
805.505	0.721478
808.88	0.340811
812.254	0.502604
815.629	0.124344
819.004	0.175734
822.379	0.225643
825.754	0.691706
829.128	0.977074
832.503	0.913076
835.878	0.872198
839.253	1.55729
842.628	2.20879
846.003	2.36096
849.377	2.92989
852.752	3.2065
856.127	4.30035
859.502	3.74064
862.877	4.42654
866.251	5.29736
869.626	5.99817
873.001	6.56674
876.376	6.64453
879.751	7.47806
883.125	7.85331
886.5	7.79462
889.875	8.43253
893.25	7.97253
896.625	7.27042
900	7.02832
903.374	6.96401
906.749	5.89342
910.124	4.70812
913.499	3.54589
916.874	2.84769
920.249	2.88145
923.623	1.19845
926.998	0.461025
930.373	0.73341
933.748	0.301201
937.123	0.496929
940.497	0.899979
943.872	0.073025
947.247	0.538158
950.622	0.780132
953.997	1.44715
957.371	3.03202
960.746	2.6253
964.121	3.73438
967.496	3.58572
970.871	4.00911
974.245	3.94502
977.62	4.85256
980.995	5.38075
984.37	5.3669
987.745	4.61803
991.12	4.84124
994.494	3.47021
997.869	3.17924
1001.24	1.97528
1004.62	1.04495
1007.99	0.206421
1011.37	0.587914
1014.74	1.59513
1018.12	2.45373
1021.49	0.01696
1024.87	2.6172
1028.24	5.73868
1031.62	11.9281
1034.99	17.0943
1038.37	23.5687
1041.74	28.2788
1045.12	35.8368
1048.49	39.5335
1051.87	42.1866
1055.24	45.2624
1058.62	45.95
1061.99	46.6677
1065.37	47.0618
1068.74	46.9601
1072.12	45.0566
1075.49	44.3024
1078.87	45.8548
1082.24	47.295
1085.62	47.3551
1088.99	49.0208
1092.36	47.9651
1095.74	47.8053
1099.11	48.0541
1102.49	43.9504
1105.86	40.3936
1109.24	35.1291
1112.61	30.703
1115.99	25.1339
1119.36	22.7393
1122.74	18.9442
1126.11	16.5332
1129.49	15.5297
1132.86	15.85
1136.24	15.1902
1139.61	14.8844
1142.99	15.6149
1146.36	16.526
1149.74	15.893
1153.11	15.313
1156.49	14.7217
1159.86	12.4424
1163.23	10.5092
1166.61	8.61632
1169.98	6.68699
1173.36	3.66777
1176.73	2.38619
1180.11	0.821308
1183.48	0.50013
1186.86	1.49553
1190.23	1.38173
1193.61	2.04666
1196.98	0.572075
1200.36	0.054581
1203.73	0.736149
1207.11	0.996918
1210.48	2.40644
1213.86	3.58985
1217.23	4.16132
1220.61	4.98296
1223.98	5.93984
1227.36	6.73143
1230.73	6.99667
1234.11	7.55751
1237.48	6.77562
1240.86	7.325
1244.23	7.54034
1247.61	7.38026
1250.98	6.02284
1254.36	6.15769
1257.73	5.34109
1261.11	4.67149
1264.48	4.71826
1267.86	4.67417
1271.23	4.01078
1274.6	3.5209
1277.98	2.93571
1281.35	3.01485
1284.73	1.69308
1288.1	1.43359
1291.48	0.608753
1294.85	0.828688
1298.23	0.755171
1301.6	0.002716
