Measurement: Raman, 785 nm, unoriented, Raman Data Processed
Mineral: Zinc
Rruff sample: R070497
Ideal chemistry: Zn
Locality: Round Mountain area, Shasta County, California, USA
Source: James Shigley
Description: Grey, metallic crystal with irregular, platy structure
Raman shift (cm-1)	intensity
267.101	0
269.993	4.08542
272.886	1.103
275.779	1.00604
278.672	5.0708
281.564	19.8407
284.457	22.746
287.35	5.12869
290.242	5.19043
293.135	5.51776
296.028	7.88019
298.921	2.94269
301.813	10.0422
304.706	22.0693
307.599	21.0623
310.491	31.6106
313.384	25.7388
316.277	15.8565
319.169	18.3984
322.062	18.1057
324.955	9.44199
327.848	14.6909
330.74	1.80139
333.633	9.66495
336.526	4.88974
339.418	10.766
342.311	10.1028
345.204	19.1581
348.096	13.7602
350.989	25.6019
353.882	19.2405
356.774	11.5213
359.667	23.109
362.56	13.9786
365.452	18.3311
368.345	14.8338
371.238	13.5901
374.131	27.2974
377.023	13.1539
379.916	13.0211
382.809	18.1735
385.701	36.2193
388.594	12.7045
391.487	27.3577
394.38	15.2366
397.272	18.0007
400.165	20.9529
403.058	16.8323
405.95	7.20312
408.843	4.96927
411.736	0.194
414.628	4.36746
417.521	0.721222
420.414	18.9868
423.307	7.23996
426.199	27.5732
429.092	22.402
431.985	35.2393
434.877	10.637
437.77	10.4874
440.663	21.4188
443.555	8.6767
446.448	0.074799
449.341	5.68198
452.234	25.6871
455.126	21.2384
458.019	23.2251
460.912	6.99268
463.804	20.0062
466.697	7.27658
469.59	19.8539
472.483	10.7921
475.375	5.02283
478.268	11.4533
481.161	0.761169
484.053	7.31442
486.946	18.0101
489.839	25.7709
492.731	9.81381
495.624	32.6636
498.517	26.177
501.409	2.54981
504.302	11.653
507.195	8.31769
510.088	4.38513
512.98	15.8789
515.873	3.26031
518.766	21.1074
521.658	2.04926
524.551	4.52536
527.444	16.8692
530.337	15.0611
533.229	23.1001
536.122	3.38699
539.015	25.8677
541.907	14.4106
544.8	25.1199
547.693	8.8634
550.585	4.30722
553.478	13.8593
556.371	2.70923
559.264	17.127
562.156	9.74255
565.049	24.9261
567.942	23.017
570.834	0.21701
573.727	12.5906
576.62	23.2716
579.512	23.4791
582.405	6.60684
585.298	8.01248
588.19	1.01489
591.083	25.4135
593.976	4.34421
596.869	10.1916
599.761	8.01395
602.654	2.53955
605.547	31.8178
608.439	17.6222
611.332	16.0012
614.225	10.1869
617.117	19.2759
620.01	4.07504
622.903	2.48038
625.795	16.5361
628.688	25.4072
631.581	6.75018
634.474	27.2448
637.366	5.12112
640.259	33.1864
643.152	28.3891
646.044	18.809
648.937	24.0466
651.83	6.90665
654.722	12.8241
657.615	15.2687
660.508	21.8734
663.401	13.128
666.293	3.95227
669.186	2.84802
672.079	9.46817
674.971	0.574402
677.864	11.7875
680.757	8.13495
683.649	23.623
686.542	4.70923
689.435	15.1932
692.328	6.13522
695.22	23.1098
698.113	12.2554
701.006	22.2185
703.898	33.2392
706.791	19.2347
709.684	18.1891
712.577	15.1836
715.469	17.9069
718.362	10.8102
721.255	18.8087
724.147	16.0875
727.04	13.7616
729.933	20.8643
732.825	13.8132
735.718	25.683
738.611	25.609
741.504	15.6697
744.396	9.79935
747.289	14.6147
750.182	26.792
753.074	9.5289
755.967	33.5623
758.86	23.5145
761.752	8.55991
764.645	1.54523
767.538	9.43582
770.431	14.4645
773.323	17.2818
776.216	16.6289
779.109	7.3483
782.001	11.0722
784.894	16.5941
787.787	20.9452
790.679	18.0758
793.572	13.5099
796.465	8.08286
799.357	20.8731
802.25	12.7467
805.143	11.902
808.036	13.1251
810.928	4.61853
813.821	0.58551
816.714	7.1199
819.606	21.8625
822.499	21.9689
825.392	4.90002
828.284	4.05902
831.177	19.1066
834.07	5.74777
836.963	3.83328
839.855	23.5965
842.748	11.6441
845.641	17.0044
848.533	22.2604
851.426	29.9407
854.319	9.21768
857.212	1.12424
860.104	23.6771
862.997	13.2209
865.89	14.0216
868.782	23.6003
871.675	11.0564
874.568	2.79724
877.46	18.902
880.353	30.2748
883.246	7.66596
886.139	10.5459
889.031	13.2836
891.924	14.131
894.817	10.3335
897.709	12.2386
900.602	8.11398
903.495	21.1458
906.388	9.16882
909.28	6.17554
912.173	9.1933
915.066	10.1614
917.958	5.42297
920.851	10.9112
923.744	11.9072
926.636	2.83929
929.529	25.7242
932.422	8.40475
935.314	13.5701
938.207	21.2386
941.1	6.80133
943.993	19.2192
946.885	27.1643
949.778	7.71597
952.671	18.5553
955.563	22.0167
958.456	17.2798
961.349	19.6396
964.241	5.45407
967.134	18.5105
970.027	17.5638
972.92	12.5282
975.812	0.594025
978.705	20.5555
981.598	14.7561
984.49	14.1342
987.383	3.8411
990.276	22.721
993.168	27.033
996.061	15.1491
998.954	6.9382
1001.85	9.06104
1004.74	17.5073
1007.63	14.0073
1010.52	25.1978
1013.42	17.3342
1016.31	21.8858
1019.2	23.6854
1022.1	0.319031
1024.99	10.2356
1027.88	18.8937
1030.77	30.7753
1033.67	13.9944
1036.56	26.8419
1039.45	17.6115
1042.34	29.7129
1045.24	15.6368
1048.13	19.2209
1051.02	22.2489
1053.91	23.5945
1056.81	21.6558
1059.7	25.7769
1062.59	1.29748
1065.49	2.35577
1068.38	4.1463
1071.27	18.1929
1074.16	21.7427
1077.06	17.5716
1079.95	24.1765
1082.84	26.5725
1085.73	14.2424
1088.63	19.1523
1091.52	21.5369
1094.41	0.90741
1097.31	20.4406
1100.2	22.3515
1103.09	13.9392
1105.98	15.4893
1108.88	7.66959
1111.77	12.6079
1114.66	23.0555
1117.56	16.9532
1120.45	0.027374
1123.34	14.9413
1126.23	22.995
1129.12	15.694
1132.02	24.8559
1134.91	10.7194
1137.8	0.005737
1140.7	10.7047
1143.59	33.1883
1146.48	22.2554
1149.37	11.1914
1152.27	29.0756
1155.16	16.6671
1158.05	22.7281
1160.94	28.2915
1163.84	8.15903
1166.73	17.9405
1169.62	15.6585
1172.52	23.1508
1175.41	1.44058
1178.3	8.71408
1181.19	30.9602
1184.09	21.8223
1186.98	14.5474
1189.87	35.3771
1192.77	3.41721
1195.66	5.70166
1198.55	33.7461
1201.44	17.7871
1204.34	21.2187
1207.23	18.4196
1210.12	34.3897
1213.01	22.8731
1215.91	10.6716
1218.8	2.35941
1221.69	5.87152
1224.58	25.7402
1227.48	11.786
1230.37	3.89865
1233.26	11.4192
1236.15	2.91373
