Measurement: Raman, 780 nm, unoriented, Raman Data Processed
Mineral: Zincolibethenite
Rruff sample: R060763
Ideal chemistry: Cu^2+^Zn^2+^P^5+^O_4_(OH)
Locality: Kabwe mine, Kabwe, Zambia
Source: Michael Scott
Description: Pale greenish-blue botryoidal groups of radiating crystals, associated with colorless tarbuttite
Raman shift (cm-1)	intensity
125.79	0
129.165	1.73407
132.54	10.0933
135.915	3.08862
139.29	13.864
142.664	20.3807
146.039	10.9243
149.414	15.6328
152.789	5.35107
156.163	17.7151
159.538	13.4893
162.913	13.8879
166.288	14.388
169.663	10.7691
173.038	15.6144
176.412	8.78244
179.787	2.50851
183.162	3.89316
186.537	3.48825
189.912	1.67041
193.286	4.33136
196.661	13.2696
200.036	12.9977
203.411	25.4743
206.786	39.6405
210.161	39.7736
213.535	39.8794
216.91	35.3582
220.285	35.5238
223.66	27.9681
227.035	30.4019
230.409	29.3992
233.784	30.4272
237.159	28.9305
240.534	31.0845
243.909	30.9903
247.284	22.4914
250.658	18.6521
254.033	16.5601
257.408	11.5276
260.783	12.5323
264.158	11.7161
267.532	12.413
270.907	11.5008
274.282	7.4555
277.657	16.0319
281.032	17.1974
284.406	21.2282
287.781	26.174
291.156	24.0974
294.531	23.0605
297.906	18.4859
301.281	4.53184
304.655	8.5249
308.03	2.81912
311.405	3.63129
314.78	2.97784
318.155	1.82362
321.529	3.35574
324.904	2.95293
328.279	1.5616
331.654	3.29556
335.029	5.82282
338.404	15.3897
341.778	14.9112
345.153	25.0295
348.528	21.6841
351.903	19.6213
355.278	20.5354
358.652	12.9284
362.027	12.3249
365.402	6.28543
368.777	10.2955
372.152	9.27518
375.526	3.96863
378.901	4.49995
382.276	1.98622
385.651	5.62633
389.026	2.82893
392.401	3.91567
395.775	0.65062
399.15	0.238754
402.525	1.06897
405.9	0.95195
409.275	0.726501
412.649	3.63609
416.024	1.04471
419.399	3.4174
422.774	6.03599
426.149	2.01157
429.524	2.90362
432.898	6.4035
436.273	2.46664
439.648	9.02321
443.023	4.83374
446.398	10.5893
449.772	12.0779
453.147	12.6211
456.522	13.5924
459.897	18.6606
463.272	15.7914
466.647	15.3701
470.021	12.4997
473.396	8.83812
476.771	7.38188
480.146	7.16365
483.521	0.630219
486.895	4.94638
490.27	6.33835
493.645	4.08984
497.02	5.97771
500.395	5.1203
503.769	7.1443
507.144	3.18439
510.519	3.37091
513.894	4.34036
517.269	5.12933
520.644	1.75049
524.018	4.37424
527.393	1.44165
530.768	3.16144
534.143	1.28038
537.518	1.95876
540.892	4.04384
544.267	3.3698
547.642	4.67452
551.017	9.10902
554.392	12.7034
557.766	9.15764
561.141	9.30794
564.516	8.73816
567.891	8.23117
571.266	11.1289
574.64	7.01769
578.015	8.37988
581.39	4.47847
584.765	2.10744
588.14	3.18556
591.515	0.784378
594.889	0.282242
598.264	0.779007
601.639	1.79837
605.014	1.2934
608.389	0.730255
611.764	1.0472
615.138	0.209595
618.513	0.380554
621.888	3.55376
625.263	4.36461
628.638	4.10875
632.012	4.93604
635.387	4.47203
638.762	4.5992
642.137	7.86995
645.512	3.77982
648.886	5.21599
652.261	3.00159
655.636	0.598175
659.011	4.76134
662.386	7.15874
665.76	4.42606
669.135	1.10391
672.51	3.21362
675.885	6.20828
679.26	0.766235
682.635	1.36092
686.009	1.52879
689.384	3.84189
692.759	0.140442
696.134	0.293701
699.509	0.938034
702.884	2.47583
706.258	0.265747
709.633	1.22896
713.008	2.52358
716.383	0.48175
719.758	0.025284
723.132	1.09584
726.507	2.05112
729.882	0.818878
733.257	1.47794
736.632	0.898926
740.006	0.622467
743.381	0.908081
746.756	0.811188
750.131	2.76137
753.506	0.71608
756.88	3.80478
760.255	0.682739
763.63	0.800949
767.005	0.311142
770.38	2.37408
773.755	1.1273
777.129	2.66138
780.504	2.16173
783.879	1.57321
787.254	5.54018
790.629	3.75177
794.003	3.35831
797.378	8.15157
800.753	6.04971
804.128	6.1629
807.503	11.12
810.878	8.20943
814.252	7.86116
817.627	11.4592
821.002	10.2142
824.377	11.5306
827.752	17.029
831.126	16.37
834.501	14.1842
837.876	18.1246
841.251	16.8308
844.626	13.4069
848	15.1892
851.375	14.5403
854.75	21.2942
858.125	15.5149
861.5	20.3919
864.875	17.3543
868.249	18.0289
871.624	16.4394
874.999	14.9141
878.374	14.2168
881.749	13.8261
885.123	12.8043
888.498	4.99451
891.873	8.185
895.248	7.06624
898.623	7.62563
901.997	3.60638
905.372	1.45268
908.747	1.37749
912.122	1.61404
915.497	1.16158
918.872	2.79486
922.246	1.0325
925.621	0.117477
928.996	0.07019
932.371	0.507019
935.746	2.01627
939.12	3.81392
942.495	4.97398
945.87	8.46472
949.245	9.90683
952.62	8.79013
955.995	20.7901
959.369	31.2492
962.744	43.6401
966.119	55.9587
969.494	68.9689
972.869	75.6515
976.243	68.1549
979.618	54.541
982.993	36.6304
986.368	23.3179
989.743	13.9793
993.117	6.69595
996.492	4.05655
999.867	9.03862
1003.24	9.93054
1006.62	11.9097
1009.99	14.5826
1013.37	15.1291
1016.74	14.2115
1020.12	16.4119
1023.49	14.5362
1026.87	13.3094
1030.24	12.8994
1033.62	12.849
1036.99	11.6459
1040.37	4.96452
1043.74	9.52295
1047.12	5.63222
1050.49	8.49932
1053.86	1.15157
1057.24	4.14667
1060.61	2.74772
1063.99	0.20549
1067.36	2.04236
1070.74	2.05336
1074.11	0.65728
1077.49	2.68175
1080.86	0.768074
1084.24	0.862679
1087.61	1.06229
1090.99	1.8594
1094.36	0.683426
1097.74	2.04029
1101.11	3.0377
1104.49	0.089828
1107.86	0.482674
1111.24	1.89835
1114.61	4.98382
1117.99	4.25323
1121.36	4.94292
1124.73	2.11893
1128.11	2.93713
1131.48	6.35214
1134.86	3.42158
1138.23	0.852425
1141.61	3.72157
1144.98	4.69511
1148.36	3.963
1151.73	6.46681
1155.11	1.75062
1158.48	3.1992
1161.86	3.0016
1165.23	3.91278
1168.61	3.24855
1171.98	1.91917
1175.36	3.58904
1178.73	5.07337
1182.11	5.27732
1185.48	3.73606
1188.86	4.57487
1192.23	4.24343
1195.61	4.83974
1198.98	5.29113
1202.36	1.2332
1205.73	4.38367
1209.11	8.15263
1212.48	5.14587
1215.86	3.72504
1219.23	5.69393
1222.61	3.43635
1225.98	3.04691
1229.35	4.09758
1232.73	3.87904
1236.1	5.61458
1239.48	5.12139
1242.85	3.24808
1246.23	3.60737
1249.6	1.44071
1252.98	3.09613
1256.35	3.56246
1259.73	5.61501
1263.1	2.25166
1266.48	3.81381
1269.85	1.5288
1273.23	4.60419
1276.6	2.69252
1279.98	1.34243
1283.35	0.03315
