Measurement: Raman, 780 nm, unoriented, Raman Data Processed
Mineral: Zircon
Rruff sample: R100128
Ideal chemistry: Zr^4+^SiO_4_
Locality: Cambodia
Source: William W. Pinch
Description: Blue cut gemstone
Raman shift (cm-1)	intensity
90.6055	0
93.9803	271.924
97.3551	272.222
100.73	77.6836
104.105	12.5464
107.48	23.9922
110.854	79.7832
114.229	204.136
117.604	391.46
120.979	604.146
124.354	868.917
127.728	1184.04
131.103	1600.74
134.478	2207.2
137.853	2722.94
141.228	3004.89
144.602	2920.73
147.977	2408.62
151.352	1776.7
154.727	1178.45
158.102	697.917
161.477	355.878
164.851	144.304
168.226	13.3027
171.601	60.7022
174.976	103.112
178.351	88.3897
181.726	28.1235
185.1	71.46
188.475	199.457
191.85	457.414
195.225	884.593
198.6	2207.95
201.974	4762.66
205.349	2249.72
208.724	2938.35
212.099	4256.9
215.474	4897.95
218.848	5142.52
222.223	7892.85
225.598	8279.26
228.973	3163.85
232.348	1991.55
235.722	1436.28
239.097	1074.39
242.472	829.469
245.847	708.821
249.222	716.473
252.597	782.292
255.971	1019.36
259.346	1338.25
262.721	1813.74
266.096	2262.92
269.471	2706.68
272.846	2914.91
276.22	3095.56
279.595	3150.64
282.97	3044.55
286.345	2708.9
289.719	2274.57
293.094	1812.43
296.469	1359.47
299.844	933.236
303.219	585.814
306.594	288.441
309.968	30.9775
313.343	201.026
316.718	403.513
320.093	521.29
323.468	470.134
326.842	174.632
330.217	383.454
333.592	1345.71
336.967	2829.7
340.342	4729.53
343.717	7089.52
347.091	10150.5
350.466	14765.9
353.841	24466.7
357.216	28400.5
360.591	17870.1
363.965	15712
367.34	16192.5
370.715	18143
374.09	21036.8
377.465	24095.5
380.839	25708.4
384.214	25581.4
387.589	24134.2
390.964	21118.6
394.339	16883.7
397.714	12793.3
401.088	9735.24
404.463	7804.37
407.838	6760.4
411.213	6378.23
414.588	6493.27
417.962	7010.17
421.337	7956.1
424.712	9055.63
428.087	10195.9
431.462	11309.7
434.837	12226.2
438.211	12588.2
441.586	10826
444.961	8973.38
448.336	7566.78
451.711	6406.68
455.085	5519.33
458.46	4802.7
461.835	3973.18
465.21	2856.66
468.585	1864.99
471.959	1092.19
475.334	532.886
478.709	133.586
482.084	114.728
485.459	256.7
488.834	320.248
492.208	336.672
495.583	261.028
498.958	150.163
502.333	15.6016
505.708	227.198
509.082	437.317
512.457	630.872
515.832	790.609
519.207	907
522.582	1021.1
525.957	1143.6
529.331	1209.46
532.706	1254.96
536.081	1236.22
539.456	1201.66
542.831	1068.77
546.205	879.567
549.58	621.042
552.955	397.338
556.33	175.253
559.705	41.6562
563.08	13.186
566.454	11.1987
569.829	51.9336
573.204	117.435
576.579	214.333
579.954	276.986
583.328	342.202
586.703	423.48
590.078	511.54
593.453	592.235
596.828	691.033
600.202	763.71
603.577	827.548
606.952	893.585
610.327	932.595
613.702	901.958
617.077	838.119
620.451	722.726
623.826	605.203
627.201	490.154
630.576	393.87
633.951	310.54
637.325	212.267
640.7	111.101
644.075	1.5332
647.45	65.1377
650.825	74.2051
654.199	33.1484
657.574	60.124
660.949	214.072
664.324	421.171
667.699	697.376
671.073	1015.2
674.448	1373.07
677.823	1803.05
681.198	2288.27
684.573	2835.46
687.948	3420.02
691.322	4029.78
694.697	4600.97
698.072	5142.22
701.447	5622.88
704.822	5979.11
708.197	6207.19
711.571	6298.52
714.946	6322.97
718.321	6214.33
721.696	6006.62
725.071	5679.07
728.445	5214.17
731.82	4607.79
735.195	3970.35
738.57	3305.44
741.945	2712.66
745.319	2173.2
748.694	1730.35
752.069	1337.95
755.444	1011.11
758.819	738.807
762.193	531.603
765.568	375.672
768.943	246.16
772.318	159.506
775.693	87.1819
779.068	39.512
782.442	10.2246
785.817	9.89771
789.192	30.5122
792.567	38.6589
795.942	40.3269
799.317	30.4439
802.691	23.3772
806.066	2.16846
809.441	19.5305
812.816	37.2065
816.191	74.1404
819.565	109.975
822.94	126.1
826.315	152.81
829.69	205.961
833.065	195.853
836.439	220.678
839.814	235.929
843.189	257.846
846.564	271.574
849.939	273.713
853.313	280.574
856.688	277.245
860.063	274.932
863.438	261.981
866.813	252.897
870.188	236.423
873.562	225.697
876.937	202.678
880.312	195.613
883.687	182.825
887.062	176.172
890.437	162.802
893.811	155.789
897.186	145.782
900.561	133.861
903.936	125.808
907.311	114.368
910.685	103.004
914.06	92.3622
917.435	81.9579
920.81	78.9908
924.185	72.4609
927.559	51.5185
930.934	31.8144
934.309	22.6499
937.684	13.3418
941.059	10.1758
944.433	4.69373
947.808	1.17664
951.183	4.81787
954.558	4.32812
957.933	6.26117
961.308	16.3908
964.682	35.5203
968.057	94.6234
971.432	395.611
974.807	1033.23
978.182	213.764
981.557	93.1844
984.931	91.7155
988.306	110.525
991.681	154.063
995.056	273.632
998.431	412.65
1001.8	783.796
1005.18	2742.52
1008.55	7010.6
1011.93	1102.64
1015.3	312.063
1018.68	149.891
1022.05	80.3391
1025.43	47.5583
1028.8	25.8981
1032.18	10.6696
1035.55	8.92737
1038.93	2.54144
1042.3	1.31207
1045.68	1.48016
1049.05	0.791016
1052.43	3.10382
1055.8	1.97412
1059.18	0.398376
1062.55	0.173004
1065.93	1.05063
1069.3	2.16412
1072.68	1.69421
1076.05	3.5271
1079.43	16.7189
1082.8	0.727692
1086.18	13.0533
1089.55	5.21582
1092.92	2.98361
1096.3	10.5361
1099.67	1.71814
1103.05	4.27127
1106.42	4.62106
1109.8	2.30847
1113.17	6.04147
1116.55	5.49692
1119.92	3.12521
1123.3	8.06729
1126.67	7.91769
1130.05	10.7164
1133.42	11.7117
1136.8	15.1161
1140.17	19.0317
1143.55	17.6604
1146.92	23.3723
1150.3	24.7944
1153.67	23.9973
1157.05	21.5366
1160.42	20.424
1163.8	21.822
1167.17	19.1008
1170.55	24.8648
1173.92	25.5645
1177.3	28.5758
1180.67	31.4278
1184.05	31.5635
1187.42	34.6277
1190.8	39.1107
1194.17	39.0289
1197.55	41.7135
1200.92	44.769
1204.29	43.2691
1207.67	47.5204
1211.04	47.2262
1214.42	42.2341
1217.79	36.1286
1221.17	25.0986
1224.54	10.8306
1227.92	0.052734
1231.29	2.03537
1234.67	1.22321
1238.04	1.22263
1241.42	2.49594
1244.79	5.21896
1248.17	9.76736
1251.54	7.68259
1254.92	9.32547
1258.29	4.04706
1261.67	2.02252
1265.04	4.75769
1268.42	10.6707
1271.79	12.9393
1275.16	12.8044
1278.54	17.1857
1281.91	10.6611
