Measurement: Raman, 532 nm, unoriented, Raman Data Processed
Mineral: Znucalite
Rruff sample: R070483
Ideal chemistry: CaZn^2+^_11_(U^6+^O_2_)(CO_3_)_3_(OH)_20_4H_2_O
Locality: Lill Mine, Black pits deposit, Březové Hory (Birkenberg), Příbram, Central Bohemia Region, Bohemia (Böhmen; Boehmen), Czech Republic
Source: Michael Scott
Description: Bright to pale yellow crust
Raman shift (cm-1)	intensity
160.762	0
163.655	179.897
166.547	26.998
169.44	188.75
172.333	316.996
175.225	253.094
178.118	290.615
181.011	51.207
183.904	45.7852
186.796	161.246
189.689	65.8184
192.582	255.379
195.474	69.3379
198.367	139.285
201.26	148.359
204.153	102.225
207.045	223.15
209.938	259.9
212.831	36.2559
215.723	84.1348
218.616	209.481
221.509	134.336
224.401	215.576
227.294	342.67
230.187	311.641
233.079	239.228
235.972	72.082
238.865	105.861
241.758	34.4922
244.65	259.975
247.543	284.285
250.436	110.947
253.328	268.473
256.221	137.455
259.114	175.728
262.007	167.723
264.899	121.865
267.792	267.293
270.685	233.109
273.577	189.65
276.47	252.84
279.363	33.4062
282.255	195.213
285.148	245.258
288.041	126.162
290.933	79.1445
293.826	83.9141
296.719	0.294922
299.612	11.9004
302.504	97.7812
305.397	23.6855
308.29	43.0781
311.182	183.635
314.075	303.908
316.968	205.18
319.861	299.609
322.753	290.185
325.646	467.51
328.539	320.998
331.431	152.787
334.324	192.205
337.217	293.894
340.109	299.772
343.002	72.3066
345.895	179.738
348.788	202.684
351.68	257.486
354.573	349.731
357.466	397.969
360.358	172.469
363.251	179.029
366.144	157.789
369.036	28.0488
371.929	57.4863
374.822	138.951
377.714	161.945
380.607	146.168
383.5	134.25
386.393	100.191
389.285	243.584
392.178	111.934
395.071	6.22852
397.963	211.861
400.856	22.498
403.749	7.06641
406.642	86.3535
409.534	169.574
412.427	81.4961
415.32	263.432
418.212	183.691
421.105	223.332
423.998	40.8691
426.89	229.609
429.783	49.9844
432.676	194.668
435.568	237.615
438.461	365.975
441.354	152.352
444.247	189.135
447.139	143.967
450.032	51.9805
452.925	111.203
455.817	319.51
458.71	297.141
461.603	144.713
464.496	89.6465
467.388	19.8027
470.281	223.912
473.174	68.8594
476.066	121.543
478.959	33.5938
481.852	32.8125
484.745	229.906
487.637	133.801
490.53	170.586
493.423	238.582
496.315	218.793
499.208	154.469
502.101	187.957
504.993	35.1016
507.886	56.8594
510.779	298.383
513.672	353.469
516.564	301.922
519.457	248.207
522.35	182.812
525.242	276.984
528.135	352.043
531.028	390.852
533.92	482.859
536.813	468.398
539.706	289.762
542.598	561.309
545.491	405.879
548.384	454.434
551.277	294.91
554.169	159.027
557.062	220.441
559.955	234.633
562.847	72.2656
565.74	93.043
568.633	291.004
571.525	310.117
574.418	173.949
577.311	221.133
580.204	3.48828
583.096	80.3828
585.989	48.4883
588.882	27.4844
591.774	29.125
594.667	136.938
597.56	201.086
600.452	23.9375
603.345	204.406
606.238	258.676
609.131	227.004
612.023	232.578
614.916	25.2734
617.809	147.152
620.701	28.5391
623.594	55.3633
626.487	96.5781
629.38	167.106
632.272	211.633
635.165	54.2891
638.058	117.481
640.95	76.957
643.843	209.297
646.736	180.797
649.628	203.926
652.521	114.301
655.414	77.0508
658.307	178.211
661.199	170.457
664.092	173.461
666.985	247.309
669.877	113.516
672.77	304.328
675.663	344.43
678.556	302.148
681.448	349.863
684.341	189.262
687.234	284.062
690.126	278.848
693.019	324.684
695.912	308.887
698.804	270.07
701.697	279.023
704.59	416.316
707.482	322.344
710.375	48.9297
713.268	88.0859
716.161	105.344
719.053	203.254
721.946	18.3633
724.839	2.75
727.731	141.852
730.624	49.75
733.517	150.812
736.409	175.512
739.302	38.7539
742.195	297.844
745.088	224.027
747.98	317.176
750.873	82.3672
753.766	144.457
756.658	271.707
759.551	205.852
762.444	162.277
765.337	157.555
768.229	97.0039
771.122	20.3359
774.015	181.848
776.907	137.691
779.8	7.50781
782.693	34.6602
785.585	336.496
788.478	236.086
791.371	90.6562
794.264	68.1328
797.156	27.5547
800.049	35.375
802.942	26.1797
805.834	148.566
808.727	111.574
811.62	64.125
814.512	171.531
817.405	86.9297
820.298	121.047
823.191	392.25
826.083	373.512
828.976	487.031
831.869	397.625
834.761	488.609
837.654	290.211
840.547	534.375
843.439	470.723
846.332	432.734
849.225	273.793
852.118	284.703
855.01	13.9453
857.903	161.562
860.796	276.758
863.688	417.465
866.581	355.492
869.474	366.098
872.366	264.203
875.259	209.461
878.152	491.926
881.045	366.891
883.937	334.121
886.83	241.387
889.723	206.879
892.615	366.531
895.508	182.664
898.401	118.691
901.293	27.9023
904.186	84.6953
907.079	364.43
909.972	273.922
912.864	119.711
915.757	168.969
918.65	64.1367
921.542	113.371
924.435	210.062
927.328	110.711
930.221	207.852
933.113	76.2422
936.006	41.1758
938.899	77.8047
941.791	0.332031
944.684	322.84
947.577	172.574
950.469	72.6914
953.362	65.832
956.255	147.106
959.148	201.356
962.04	215.387
964.933	172.945
967.826	177.918
970.718	215.144
973.611	98.207
976.504	179.789
979.396	32.7422
982.289	16.6641
985.182	68.9648
988.074	156.633
990.967	323.106
993.86	122.098
996.753	17.375
999.645	14.8203
1002.54	8.03125
1005.43	83.2461
1008.32	225.379
1011.22	336.234
1014.11	198.191
1017	231.562
1019.89	78.7852
1022.79	7.51562
1025.68	61.2539
1028.57	408.356
1031.46	531.117
1034.36	136.875
1037.25	67.7656
1040.14	54.7109
1043.04	94.3086
1045.93	401.965
1048.82	246.68
1051.71	179.312
1054.61	205.723
1057.5	222.035
1060.39	208.062
1063.29	474.082
1066.18	411.719
1069.07	554.121
1071.96	570.324
1074.86	503.281
1077.75	226.633
1080.64	403.59
1083.53	222.352
1086.43	419.812
1089.32	137.305
1092.21	291.59
1095.1	212.691
1098	230.25
1100.89	388.789
1103.78	175.07
1106.67	80.2031
1109.57	85.7305
1112.46	409.941
1115.35	362.926
1118.25	239.852
1121.14	94.8828
1124.03	5.78906
1126.92	84.1289
1129.82	166.059
1132.71	118.898
1135.6	272.668
1138.49	148.481
1141.39	232.242
1144.28	257.684
1147.17	250.844
1150.07	209.473
1152.96	200.176
1155.85	142.102
1158.74	88.0391
1161.64	134.141
1164.53	118.758
1167.42	34.7656
1170.32	104.406
1173.21	168.723
1176.1	224.824
1178.99	97.3477
1181.88	282.684
1184.78	370.137
1187.67	422.844
1190.56	263.094
1193.46	154.289
1196.35	243.047
1199.24	197.012
1202.13	185.457
1205.03	245.234
1207.92	48.2031
1210.81	0.238281
1213.7	23.8438
1216.6	335.519
1219.49	484.695
1222.38	689.664
1225.28	545.004
1228.17	303.266
1231.06	178.453
1233.95	35.8359
1236.85	85.2539
1239.74	119.203
1242.63	246.422
1245.53	55.7188
1248.42	122.805
1251.31	285.34
1254.2	80.9805
1257.1	76.0703
1259.99	178.402
1262.88	262.828
1265.77	389.723
1268.67	498.527
1271.56	250.957
1274.45	179.758
1277.35	190.691
1280.24	85.8125
1283.13	79.4297
1286.02	96.1055
1288.91	168.379
1291.81	0
