Measurement: Raman, 780 nm, unoriented, Raman Data Processed
Mineral: Adelite
Rruff sample: R140962
Ideal chemistry: CaMgAs^5+^O_4_(OH)
Locality: Sterling Hill, Ogdensburg, Franklin Mining District, Sussex County, New Jersey, USA
Source: Marcus Origlieri
Description: Massive aggregate of smokey orange granular crystals, associated with red zincite and black franklinite
Raman shift (cm-1)	intensity
100.117	0
103.492	1.1311
106.867	8.67779
110.242	10.3663
113.617	17.6842
116.992	10.9361
120.366	6.82544
123.741	12.6641
127.116	6.68304
130.491	13.9517
133.865	4.71674
137.24	10.6378
140.615	8.76141
143.99	5.14343
147.365	10.0079
150.74	12.8842
154.114	1.68176
157.489	5.65649
160.864	11.153
164.239	15.614
167.614	32.3488
170.988	23.5067
174.363	16.7353
177.738	16.6092
181.113	19.7369
184.488	22.5768
187.863	24.119
191.237	28.1968
194.612	28.9559
197.987	27.6846
201.362	33.0026
204.737	32.8272
208.112	32.2756
211.486	38.3712
214.861	34.7175
218.236	36.2642
221.611	30.8223
224.986	27.6478
228.36	26.279
231.735	19.9239
235.11	16.9129
238.485	11.3836
241.86	9.17383
245.234	13.9938
248.609	8.52753
251.984	4.75897
255.359	6.65491
258.734	6.42743
262.109	4.17206
265.483	3.82489
268.858	1.117
272.233	0.087646
275.608	0.422485
278.983	0.700012
282.358	2.599
285.732	0.615784
289.107	2.19196
292.482	1.5321
295.857	2.32727
299.232	1.54059
302.606	2.86731
305.981	2.39117
309.356	6.61749
312.731	9.78967
316.106	16.4824
319.481	23.3218
322.855	34.8523
326.23	60.2848
329.605	84.5129
332.98	99.2514
336.355	66.358
339.729	47.7764
343.104	47.6719
346.479	60.697
349.854	81.2405
353.229	97.5336
356.603	86.6946
359.978	73.4769
363.353	62.6614
366.728	47.2487
370.103	28.778
373.478	16.4883
376.852	5.83618
380.227	0.787781
383.602	2.40741
386.977	3.0636
390.352	2.00763
393.726	7.58069
397.101	10.4378
400.476	16.2892
403.851	26.5266
407.226	33.6354
410.601	41.2736
413.975	50.3412
417.35	63.5341
420.725	82.8631
424.1	81.0583
427.475	78.3112
430.849	62.3656
434.224	38.3862
437.599	28.9794
440.974	27.8413
444.349	26.7736
447.724	29.07
451.098	41.0826
454.473	56.2758
457.848	77.7866
461.223	88.7786
464.598	114.505
467.972	158.286
471.347	154.809
474.722	96.1577
478.097	66.2694
481.472	48.4299
484.846	39.5442
488.221	38.4886
491.596	45.7576
494.971	51.5721
498.346	49.8011
501.721	31.2328
505.095	19.4952
508.47	16.5914
511.845	7.79981
515.22	5.45166
518.595	3.62122
521.97	1.94714
525.344	0.473755
528.719	0.958923
532.094	2.78516
535.469	2.63739
538.844	0.435974
542.218	2.4585
545.593	0.539917
548.968	0.395508
552.343	0.430725
555.718	1.7558
559.092	0.069458
562.467	1.25971
565.842	0.514404
569.217	2.20471
572.592	1.9162
575.967	5.34961
579.341	8.19379
582.716	9.73871
586.091	9.90356
589.466	12.1504
592.841	8.95911
596.216	12.0035
599.59	17.4996
602.965	18.5913
606.34	16.2324
609.715	13.9656
613.09	13.8931
616.464	10.9945
619.839	13.2004
623.214	11.5062
626.589	10.2298
629.964	10.5609
633.338	9.81958
636.713	10.4512
640.088	9.94135
643.463	8.8136
646.838	8.86554
650.213	6.32568
653.587	8.21832
656.962	8.65149
660.337	10.9436
663.712	6.75507
667.087	6.40845
670.462	7.5293
673.836	6.16248
677.211	7.63367
680.586	5.8728
683.961	6.95099
687.336	5.32074
690.71	3.45059
694.085	2.92224
697.46	4.70221
700.835	0.738892
704.21	2.41528
707.585	4.11606
710.959	1.20221
714.334	0.231903
717.709	0.417633
721.084	0.190826
724.459	0.835632
727.833	1.69379
731.208	0.342712
734.583	1.22385
737.958	2.77386
741.333	0.553864
744.707	0.015991
748.082	1.27542
751.457	0.635162
754.832	1.48883
758.207	6.26065
761.582	10.0295
764.956	19.2279
768.331	27.5285
771.706	43.698
775.081	75.1966
778.456	122.532
781.83	187.619
785.205	238.704
788.58	237.172
791.955	196.648
795.33	184.143
798.705	209.733
802.079	298.353
805.454	379.878
808.829	395.627
812.204	458.624
815.579	634.615
818.953	611.57
822.328	543.861
825.703	984.373
829.078	1889.8
832.453	958.016
835.827	358.874
839.202	171.716
842.577	90.6486
845.952	54.5142
849.327	42.9273
852.702	31.7532
856.076	29.2873
859.451	26.4254
862.826	19.7809
866.201	12.7764
869.576	7.64072
872.951	3.69528
876.325	2.29868
879.7	0.410675
883.075	1.23846
886.45	1.00913
889.825	1.41455
893.199	2.6304
896.574	0.161072
899.949	0.270233
903.324	0.428436
906.699	0.184723
910.073	2.43811
913.448	1.16034
916.823	1.86643
920.198	0.928406
923.573	1.20779
926.948	0.846863
930.322	3.10529
933.697	3.67432
937.072	1.96216
940.447	2.52676
943.822	1.36514
947.197	3.08389
950.571	1.74707
953.946	1.86743
957.321	2.85977
960.696	5.3479
964.071	7.05203
967.445	8.68826
970.82	4.58758
974.195	4.0404
977.57	5.53964
980.945	5.39417
984.319	3.59586
987.694	4.58401
991.069	3.22778
994.444	2.70148
997.819	4.47867
1001.19	4.86679
1004.57	4.60092
1007.94	4.74982
1011.32	4.47708
1014.69	7.78497
1018.07	4.14438
1021.44	5.2709
1024.82	2.05869
1028.19	6.34396
1031.57	5.47498
1034.94	5.46579
1038.32	5.37164
1041.69	6.17749
1045.07	4.06714
1048.44	2.12769
1051.82	2.27801
1055.19	3.94818
1058.57	4.04669
1061.94	0.723541
1065.32	0.438599
1068.69	1.60791
1072.07	0.494781
1075.44	0.161163
1078.81	0.103882
1082.19	0.684967
1085.56	2.52106
1088.94	3.974
1092.31	8.44745
1095.69	2.00424
1099.06	5.94736
1102.44	5.35846
1105.81	9.3887
1109.19	9.02634
1112.56	8.90271
1115.94	8.76633
1119.31	7.75522
1122.69	5.1387
1126.06	5.44702
1129.44	4.15366
1132.81	2.95563
1136.19	5.81174
1139.56	2.52454
1142.94	1.25476
1146.31	0.900269
1149.69	3.54938
1153.06	1.64929
1156.43	1.05658
1159.81	1.75971
1163.18	0.850403
1166.56	2.6275
1169.93	0.674438
1173.31	1.4693
1176.68	3.54535
1180.06	2.18799
1183.43	3.19348
1186.81	4.12183
1190.18	4.72894
1193.56	5.21997
1196.93	6.91321
1200.31	4.06421
1203.68	7.10657
1207.06	11.0911
1210.43	14.3873
1213.81	11.3297
1217.18	17.4351
1220.56	17.8981
1223.93	21.4266
1227.31	18.9568
1230.68	21.9549
1234.06	24.4277
1237.43	21.1243
1240.81	24.2893
1244.18	21.8508
1247.56	20.1091
1250.93	16.0626
1254.31	20.9019
1257.68	23.3519
1261.05	21.6118
1264.43	8.49646
1267.8	11.2047
1271.18	5.15662
1274.55	3.63293
1277.93	0.468628
1281.3	1.30847
