Measurement: Raman, 532 nm, unoriented, Raman Data Processed
Mineral: Adelite
Rruff sample: R140962
Ideal chemistry: CaMgAs^5+^O_4_(OH)
Locality: Sterling Hill, Ogdensburg, Franklin Mining District, Sussex County, New Jersey, USA
Source: Marcus Origlieri
Description: Massive aggregate of smokey orange granular crystals, associated with red zincite and black franklinite
Raman shift (cm-1)	intensity
139.241	0
142.616	12.6482
145.991	14.9863
149.365	32.6714
152.74	10.2376
156.115	2.65649
159.49	1.17749
162.865	30.4702
166.24	60.0293
169.614	56.2195
172.989	30.853
176.364	24.5869
179.739	27.3831
183.114	40.4304
186.488	38.1829
189.863	45.6626
193.238	54.0564
196.613	60.7378
199.988	65.7649
203.363	63.6499
206.737	61.4436
210.112	68.6296
213.487	72.8342
216.862	72.0964
220.237	64.9338
223.612	46.7827
226.986	53.8296
230.361	31.3142
233.736	19.5105
237.111	14.9685
240.486	7.41748
243.86	0.202393
247.235	8.65161
250.61	1.48804
253.985	5.9812
257.36	4.15527
260.735	1.71582
264.109	2.33398
267.484	2.53589
270.859	2.09619
274.234	1.20264
277.609	1.05762
280.983	1.81787
284.358	9.13648
287.733	9.65063
291.108	5.31714
294.483	2.16626
297.858	11.1291
301.232	18.2446
304.607	28.1855
307.982	31.8621
311.357	43.0583
314.732	67.8227
318.106	105.61
321.481	140.935
324.856	209.768
328.231	275.447
331.606	306.155
334.981	266.47
338.355	220.597
341.73	216.122
345.105	239.344
348.48	292.597
351.855	336.674
355.229	317.099
358.604	276.179
361.979	243.25
365.354	205.993
368.729	146.78
372.103	100.347
375.478	54.6145
378.853	28.0527
382.228	14.457
385.603	10.7634
388.978	21.1704
392.352	29.3276
395.727	36.9853
399.102	37.8347
402.477	54.1553
405.852	65.1099
409.226	73.6638
412.601	104.956
415.976	135.313
419.351	156.94
422.726	151.518
426.101	135.606
429.475	93.1296
432.85	25.8298
436.225	7.63867
439.6	9.71509
442.975	3.20288
446.349	29.1116
449.724	70.7053
453.099	142.193
456.474	239.1
459.849	292.405
463.224	346.548
466.598	448.622
469.973	472.517
473.348	331.04
476.723	227.222
480.098	169.163
483.473	149.879
486.847	125.665
490.222	133.681
493.597	141.347
496.972	121.083
500.347	84.5488
503.721	52.022
507.096	23.2331
510.471	8.89404
513.846	4.36816
517.221	0.69043
520.596	0.366943
523.97	3.98413
527.345	0.387939
530.72	14.8049
534.095	6.07373
537.47	1.45825
540.844	2.94165
544.219	6.07617
547.594	12.5647
550.969	12.6321
554.344	12.6135
557.718	16.5771
561.093	13.5454
564.468	9.87842
567.843	14.6885
571.218	14.6909
574.592	18.5088
577.967	19.7778
581.342	18.2429
584.717	25.4898
588.092	20.417
591.467	9.8252
594.841	13.2048
598.216	21.3184
601.591	22.0496
604.966	24.1958
608.341	19.5122
611.716	20.8669
615.09	10.8227
618.465	13.6829
621.84	11.9082
625.215	4.98511
628.59	10.0669
631.964	12.676
635.339	10.1948
638.714	6.2688
642.089	4.72168
645.464	4.81592
648.838	12.9973
652.213	17.1001
655.588	14.0215
658.963	12.5054
662.338	8.58691
665.713	15.3955
669.087	17.6668
672.462	14.1987
675.837	8.74292
679.212	12.1665
682.587	6.44775
685.962	12.137
689.336	13.9526
692.711	8.96167
696.086	15.4211
699.461	13.21
702.836	6.24487
706.21	1.01929
709.585	4.47729
712.96	2.67578
716.335	3.47559
719.71	3.47559
723.085	10.105
726.459	2.00781
729.834	0.524658
733.209	3.96777
736.584	1.35718
739.959	1.22534
743.333	4.74829
746.708	5.19458
750.083	10.2307
753.458	11.2847
756.833	15.4646
760.207	38.0435
763.582	75.865
766.957	124.423
770.332	219.325
773.707	372.642
777.082	574.69
780.456	822.108
783.831	1018.83
787.206	1013.2
790.581	904.606
793.956	878.215
797.33	1015.99
800.705	1344.42
804.08	1767.26
807.455	1970.02
810.83	2175.8
814.205	2617.42
817.579	3108.24
820.954	2942.78
824.329	4123.87
827.704	6463.73
831.079	4743.94
834.453	1741.66
837.828	835.77
841.203	432.696
844.578	249.33
847.953	165.301
851.328	136.606
854.702	110.556
858.077	86.8218
861.452	73.5195
864.827	54.261
868.202	41.6335
871.577	22.9924
874.951	0.813477
878.326	8.62817
881.701	3.09009
885.076	10.8999
888.451	13.5486
891.825	5.19678
895.2	6.59985
898.575	22.1755
901.95	13.9873
905.325	16.9959
908.699	23.4863
912.074	10.4497
915.449	9.14697
918.824	16.1687
922.199	17.6045
925.573	20.0891
928.948	20.9099
932.323	22.5806
935.698	15.6248
939.073	19.6506
942.448	14.4512
945.822	0.899414
949.197	7.92944
952.572	3.86499
955.947	9.48023
959.322	19.27
962.697	29.2375
966.071	19.5076
969.446	17.1206
972.821	19.7317
976.196	21.0593
979.571	14.2434
982.945	7.57324
986.32	7.07764
989.695	8.85059
993.07	6.71729
996.445	8.77441
999.819	0.477051
1003.19	1.82568
1006.57	11.7622
1009.94	2.64356
1013.32	10.4087
1016.69	16.3945
1020.07	6.74268
1023.44	3.47461
1026.82	10.9277
1030.19	14.8335
1033.57	16.5908
1036.94	9.26465
1040.32	15.7036
1043.69	18.522
1047.07	15.3535
1050.44	7.7251
1053.82	4.31006
1057.19	5.57812
1060.57	5.85254
1063.94	4.45508
1067.32	6.45459
1070.69	0.45752
1074.07	8.21875
1077.44	11.3271
1080.82	9.21875
1084.19	10.5601
1087.57	19.5513
1090.94	14.5513
1094.31	11.5474
1097.69	20.1133
1101.06	14.9766
1104.44	25.251
1107.81	17.5303
1111.19	30.4297
1114.56	33.1245
1117.94	26.6689
1121.31	12.9273
1124.69	3.94238
1128.06	0.006348
1131.44	5.24512
1134.81	1.30029
1138.19	8.26953
1141.56	15.417
1144.94	8.8081
1148.31	2.47998
1151.69	16.813
1155.06	17.3013
1158.44	20.6157
1161.81	23.376
1165.19	22.2026
1168.56	17.9048
1171.93	13.7896
1175.31	16.314
1178.68	13.1313
1182.06	16.1279
1185.43	16.355
1188.81	17.041
1192.18	16.2622
1195.56	21.8438
1198.93	13.4321
1202.31	8.16797
1205.68	11.6167
1209.06	19.2339
1212.43	14.3784
1215.81	13.2065
1219.18	15.3984
1222.56	21.4644
1225.93	11.6748
1229.31	10.2085
1232.68	9.67334
1236.06	6.21875
1239.43	13.4712
1242.81	6.54102
1246.18	7.13769
1249.56	20.4204
1252.93	9.9375
1256.31	23.5322
1259.68	16.335
1263.06	8.45264
1266.43	18.9424
1269.81	7.85742
1273.18	14.1001
1276.56	4.58301
1279.93	10.1919
1283.3	7.17822
1286.68	11.8813
1290.05	11.7471
1293.43	10.2754
1296.8	0.663574
1300.18	3.28857
