Measurement: Raman, 780 nm, unoriented, Raman Data Processed
Mineral: Alluaudite
Rruff sample: R160082
Ideal chemistry: [box]NaMn^2+^Fe^3+^_2_(PO_4_)_3_
Locality: Custer, South Dakota, USA
Source: Rock Currier
Description: Dark green massive, associated with muscovite
Raman shift (cm-1)	intensity
141.097	0
143.99	0.026466
146.883	1.13651
149.775	2.62993
152.668	1.70089
155.561	0.99472
158.453	0.291534
161.346	1.99957
164.239	2.5045
167.132	3.71542
170.024	5.31222
172.917	5.86428
175.81	7.05528
178.702	9.9051
181.595	9.19769
184.488	7.8396
187.381	7.57291
190.273	7.11796
193.166	5.4801
196.059	3.05013
198.951	0.661201
201.844	0.140434
204.737	0.292542
207.629	0.571632
210.522	0.000565
213.415	0.604359
216.308	0.25243
219.2	1.08308
222.093	3.02853
224.986	3.43483
227.878	3.83782
230.771	3.72131
233.664	3.76737
236.556	3.59915
239.449	3.78002
242.342	4.10763
245.234	4.14139
248.127	5.60803
251.02	8.05908
253.913	10.5196
256.805	11.4203
259.698	10.1015
262.591	8.38041
265.483	6.83259
268.376	7.5168
271.269	8.49936
274.161	9.88733
277.054	11.5547
279.947	10.9781
282.84	7.56119
285.732	5.26231
288.625	3.0587
291.518	1.92671
294.41	1.29755
297.303	0.734409
300.196	0.766167
303.089	0.215874
305.981	0.074306
308.874	0.453953
311.767	0.367762
314.659	0.065752
317.552	0.350122
320.445	0.621027
323.337	1.4778
326.23	2.15277
329.123	2.6531
332.015	4.44642
334.908	5.64448
337.801	6.20945
340.694	6.38093
343.586	5.69496
346.479	5.10708
349.372	4.73578
352.264	4.07863
355.157	4.54492
358.05	4.97274
360.942	4.81698
363.835	4.64057
366.728	4.52235
369.621	4.39483
372.513	3.935
375.406	4.14618
378.299	4.04917
381.191	3.80671
384.084	4.67204
386.977	4.23161
389.87	4.68113
392.762	4.96573
395.655	4.41918
398.548	3.7807
401.44	3.32988
404.333	2.38179
407.226	1.22974
410.118	0.216501
413.011	0.308155
415.904	0.003344
418.796	0.107973
421.689	0.049259
424.582	0.229038
427.475	0.366554
430.367	0.160297
433.26	0.258142
436.153	0.642117
439.045	0.110952
441.938	0.897528
444.831	2.18871
447.724	2.98137
450.616	3.8477
453.509	3.8073
456.402	4.54071
459.294	4.20617
462.187	4.37032
465.08	5.1511
467.972	6.18436
470.865	7.65837
473.758	8.78716
476.651	8.69622
479.543	8.12722
482.436	7.75528
485.329	6.8911
488.221	6.85039
491.114	5.95925
494.007	5.08086
496.899	4.46052
499.792	3.94592
502.685	3.6661
505.577	3.03651
508.47	3.78696
511.363	3.28918
514.256	2.56302
517.148	1.80639
520.041	1.77593
522.934	0.910238
525.826	0.317202
528.719	0.019777
531.612	0.008862
534.505	0.417744
537.397	0.033949
540.29	0.050287
543.183	0.286562
546.075	0.273594
548.968	0.537439
551.861	0.697079
554.753	1.51683
557.646	1.68233
560.539	1.80239
563.432	1.43767
566.324	1.40034
569.217	1.52032
572.11	1.96487
575.002	2.56578
577.895	3.18883
580.788	4.37324
583.681	7.3391
586.573	10.8912
589.466	14.5666
592.359	17.0955
595.251	15.6394
598.144	12.4565
601.037	9.23831
603.929	7.65601
606.822	6.81776
609.715	5.58258
612.607	5.71094
615.5	5.93036
618.393	6.17834
621.286	6.6163
624.178	6.50125
627.071	6.59582
629.964	5.87364
632.856	4.72922
635.749	4.72253
638.642	4.18055
641.534	3.21559
644.427	3.04685
647.32	2.12981
650.213	1.8671
653.105	0.878821
655.998	1.01501
658.891	0.712152
661.783	0.358126
664.676	0.449792
667.569	0.003792
670.462	0.013566
673.354	0.179398
676.247	0.182165
679.14	0.171286
682.032	0.027765
684.925	0.327968
687.818	0.088712
690.71	0.062988
693.603	0.180101
696.496	0.118713
699.389	0.283197
702.281	0.16542
705.174	0.120124
708.067	0.088593
710.959	0.075247
713.852	0.308389
716.745	0.593249
719.637	0.312836
722.53	0.232865
725.423	0.312281
728.316	0.166297
731.208	0.371764
734.101	0.411684
736.994	0.241591
739.886	0.347442
742.779	0.100253
745.672	0.219099
748.564	0.213186
751.457	0.33347
754.35	0.384011
757.242	0.434225
760.135	0.119864
763.028	0.02887
765.921	0.365391
768.813	0.048967
771.706	0.109003
774.599	0.236074
777.491	0.379154
780.384	0.509884
783.277	0.197178
786.169	0.469769
789.062	0.419939
791.955	0.54048
794.848	0.7679
797.74	0.565962
800.633	0.566914
803.526	0.57567
806.418	0.750929
809.311	0.936373
812.204	0.835661
815.096	0.848269
817.989	1.04662
820.882	1.09378
823.775	1.28269
826.667	1.17375
829.56	1.02418
832.453	1.24204
835.345	1.13461
838.238	1.30857
841.131	1.26469
844.024	1.87942
846.916	1.48057
849.809	1.59621
852.702	2.05972
855.594	1.68806
858.487	1.65705
861.38	1.71746
864.272	1.74881
867.165	1.57066
870.058	1.82979
872.951	1.20358
875.843	1.22697
878.736	1.25001
881.629	1.02692
884.521	0.977973
887.414	0.578148
890.307	0.640923
893.199	0.495159
896.092	0.773534
898.985	0.175385
901.878	0.327009
904.77	0.204383
907.663	0.08534
910.556	0.32733
913.448	0.396629
916.341	0.447924
919.234	0.191234
922.126	0.181047
925.019	0.057159
927.912	0.399636
930.804	0.796604
933.697	0.625389
936.59	1.05859
939.483	1.23199
942.375	1.56317
945.268	1.63955
948.161	2.18695
951.053	2.33232
953.946	3.34389
956.839	3.9783
959.731	4.82589
962.624	6.37894
965.517	8.46073
968.41	8.93176
971.302	8.89258
974.195	8.28132
977.088	8.17646
979.98	7.89438
982.873	8.17097
985.766	7.18114
988.659	6.31031
991.551	5.64656
994.444	6.23716
997.337	6.67328
1000.23	7.49245
1003.12	8.45916
1006.01	9.94211
1008.91	10.2587
1011.8	10.113
1014.69	9.57358
1017.59	9.09815
1020.48	8.45556
1023.37	7.64048
1026.26	7.12971
1029.16	6.29062
1032.05	7.8107
1034.94	11.2325
1037.83	15.2219
1040.73	16.9838
1043.62	12.9708
1046.51	7.93347
1049.4	4.48931
1052.3	2.31568
1055.19	1.05085
1058.08	0.692339
1060.98	0.109247
1063.87	0.099525
1066.76	0.27611
1069.65	0.624564
1072.55	0.088558
1075.44	0.052757
1078.33	0.324055
1081.22	0.12484
1084.12	0.381179
1087.01	0.764755
1089.9	1.20093
1092.8	1.4505
1095.69	1.8378
1098.58	2.02408
1101.47	2.59341
1104.37	3.09469
1107.26	3.43367
1110.15	4.65834
1113.05	4.72467
1115.94	5.56435
1118.83	6.48568
1121.72	7.63277
1124.62	9.38589
1127.51	11.0539
1130.4	11.4076
1133.29	10.2854
1136.19	8.31035
1139.08	5.79361
1141.97	4.35783
1144.86	3.8008
1147.76	2.93048
1150.65	2.74544
1153.54	2.47844
1156.43	2.32511
1159.33	1.87019
1162.22	1.44498
1165.11	0.9184
1168.01	1.00908
1170.9	0.894286
1173.79	0.753807
1176.68	0.711093
1179.58	0.321527
1182.47	0.244683
1185.36	0.222685
1188.26	0.031508
1191.15	0.131924
1194.04	0.031617
1196.93	0.089311
1199.83	0.110024
1202.72	0.241722
1205.61	0.193577
1208.5	0.369688
1211.4	0.361239
1214.29	0.463232
1217.18	0.126173
1220.08	0.364856
1222.97	0.765673
1225.86	0.294867
1228.75	0.698252
1231.64	0.268717
1234.54	0.733916
1237.43	0.484031
1240.32	0.830528
1243.22	0.815031
1246.11	0.272509
1249	0.40059
1251.89	0.067566
1254.79	0.227689
1257.68	0.69543
1260.57	0.265591
1263.46	0.443789
1266.36	0.350682
1269.25	0.114223
1272.14	0.110613
1275.04	0.242988
1277.93	0.264577
1280.82	0.236955
