Measurement: Raman, 532 nm, unoriented, Raman Data Processed
Mineral: Alluaudite
Rruff sample: R160082
Ideal chemistry: [box]NaMn^2+^Fe^3+^_2_(PO_4_)_3_
Locality: Custer, South Dakota, USA
Source: Rock Currier
Description: Dark green massive, associated with muscovite
Raman shift (cm-1)	intensity
149.365	0
152.258	2.12454
155.151	3.76681
158.044	0.391075
160.936	4.5156
163.829	11.6417
166.722	18.2855
169.614	24.7892
172.507	24.8553
175.4	22.3538
178.293	25.7158
181.185	26.274
184.078	22.6253
186.971	19.7561
189.863	18.6011
192.756	18.4606
195.649	14.4594
198.542	7.34223
201.434	7.24357
204.327	6.38008
207.22	6.62256
210.112	3.85683
213.005	0.096863
215.898	0.805229
218.79	0.173744
221.683	1.22127
224.576	1.95446
227.469	3.77375
230.361	2.32707
233.254	1.89368
236.147	1.51267
239.039	1.83454
241.932	3.73654
244.825	5.75771
247.717	9.53709
250.61	14.5108
253.503	21.1287
256.396	26.0419
259.288	26.9917
262.181	24.8567
265.074	23.491
267.966	23.5113
270.859	24.6614
273.752	27.7964
276.644	31.3656
279.537	29.818
282.43	24.3109
285.322	15.9687
288.215	10.5615
291.108	5.98847
294.001	3.1925
296.893	2.46336
299.786	1.80103
302.679	0.431976
305.571	0.594704
308.464	1.73076
311.357	0.019699
314.25	0.675705
317.142	0.649544
320.035	1.24776
322.928	4.49841
325.82	7.1494
328.713	10.9185
331.606	14.3118
334.498	18.8689
337.391	22.2315
340.284	25.1599
343.176	25.8398
346.069	25.1627
348.962	26.2478
351.855	28.2539
354.747	30.1409
357.64	31.0505
360.533	34.1285
363.425	34.2796
366.318	32.0121
369.211	29.5564
372.103	25.7941
374.996	23.422
377.889	20.0783
380.782	19.5384
383.674	19.7385
386.567	19.7545
389.46	22.2471
392.352	22.5703
395.245	22.5923
398.138	21.189
401.031	19.7708
403.923	17.7845
406.816	10.8203
409.709	5.52874
412.601	2.99787
415.494	1.74649
418.387	0.650818
421.279	0.039078
424.172	0.293732
427.065	0.207859
429.957	1.44967
432.85	0.072117
435.743	0.748676
438.636	0.017761
441.528	3.18813
444.421	7.0408
447.314	10.7882
450.206	14.4002
453.099	17.7221
455.992	19.6314
458.885	20.8456
461.777	21.8438
464.67	24.7302
467.563	30.0439
470.455	37.1947
473.348	46.204
476.241	51.9249
479.133	53.64
482.026	51.933
484.919	50.6896
487.812	43.9391
490.704	35.6215
493.597	27.9927
496.49	22.1414
499.382	18.8156
502.275	14.8504
505.168	12.8886
508.06	11.9599
510.953	10.5532
513.846	9.97579
516.739	7.10524
519.631	5.09811
522.524	2.58163
525.417	0.733433
528.309	0.134495
531.202	0.913639
534.095	1.20027
536.987	0.870113
539.88	0.438877
542.773	0.648518
545.665	2.79308
548.558	3.33977
551.451	4.46267
554.344	6.25181
557.236	8.75369
560.129	8.53578
563.022	8.96147
565.914	8.52205
568.807	9.60696
571.7	12.3863
574.592	15.8122
577.485	22.6695
580.378	32.7912
583.271	45.5317
586.163	61.9839
589.056	78.9174
591.949	93.6351
594.841	90.0586
597.734	73.0093
600.627	55.2294
603.519	44.1237
606.412	38.0959
609.305	37.4123
612.198	36.2399
615.09	39.2598
617.983	43.1143
620.876	47.7726
623.768	52.544
626.661	53.1934
629.554	49.4917
632.447	40.1159
635.339	30.3455
638.232	23.703
641.125	19.2719
644.017	15.3877
646.91	11.9744
649.803	9.27404
652.695	6.8514
655.588	3.88229
658.481	2.90346
661.374	2.1572
664.266	0.451572
667.159	0.456585
670.052	0.618698
672.944	0.301575
675.837	0.135471
678.73	0.03334
681.622	0.438469
684.515	2.18003
687.408	0.316822
690.301	0.67593
693.193	0.307949
696.086	0.312763
698.979	0.611767
701.871	0.073357
704.764	0.589092
707.657	0.243938
710.549	0.056416
713.442	0.090771
716.335	0.039215
719.227	0.033661
722.12	0.25301
725.013	1.41688
727.906	0.194313
730.798	0.893742
733.691	0.998672
736.584	1.04181
739.476	1.83834
742.369	1.4969
745.262	1.4822
748.154	1.12908
751.047	1.11049
753.94	0.756737
756.833	0.939449
759.725	0.826149
762.618	1.64911
765.511	0.840611
768.403	1.4393
771.296	1.61375
774.189	1.50164
777.082	2.75142
779.974	2.30193
782.867	2.38047
785.76	2.83722
788.652	2.71919
791.545	2.98564
794.438	3.73376
797.33	3.58996
800.223	4.4561
803.116	4.08289
806.009	3.45431
808.901	3.87627
811.794	4.80557
814.687	5.04241
817.579	5.41174
820.472	5.88387
823.365	5.8802
826.257	6.56028
829.15	5.88417
832.043	6.9843
834.936	5.97875
837.828	6.19822
840.721	6.43859
843.614	7.14603
846.506	6.40986
849.399	8.71444
852.292	8.36634
855.184	8.74161
858.077	8.36251
860.97	7.61571
863.863	7.45907
866.755	6.9966
869.648	6.67945
872.541	5.95809
875.433	4.42875
878.326	4.20678
881.219	3.33967
884.111	2.62402
887.004	1.82244
889.897	1.33418
892.79	0.801685
895.682	0.426868
898.575	0.355862
901.468	1.05977
904.36	1.61739
907.253	1.41862
910.146	1.25917
913.038	1.09081
915.931	0.6096
918.824	1.23364
921.717	2.25711
924.609	3.82918
927.502	6.43322
930.395	8.73665
933.287	11.2179
936.18	14.3012
939.073	18.2104
941.966	20.4246
944.858	23.9307
947.751	26.7731
950.644	32.5611
953.536	40.4656
956.429	51.036
959.322	67.2597
962.214	85.2021
965.107	100.271
968	109.819
970.893	103.855
973.785	88.2708
976.678	75.3353
979.571	62.935
982.463	54.114
985.356	45.4634
988.249	36.7981
991.141	31.1688
994.034	30.4343
996.927	32.6953
999.819	36.4327
1002.71	41.5917
1005.61	49.1837
1008.5	53.2704
1011.39	52.6622
1014.28	48.8179
1017.18	45.1613
1020.07	45.1904
1022.96	44.3796
1025.85	42.7006
1028.75	43.7692
1031.64	53.443
1034.53	70.3159
1037.42	93.7531
1040.32	111.526
1043.21	101.87
1046.1	68.863
1048.99	40.0986
1051.89	21.4713
1054.78	11.0862
1057.67	6.47459
1060.57	2.60258
1063.46	1.18172
1066.35	0.592316
1069.24	1.02902
1072.14	1.55627
1075.03	1.34798
1077.92	1.24073
1080.82	0.619373
1083.71	0.067955
1086.6	1.02597
1089.49	2.06836
1092.39	2.92036
1095.28	4.62538
1098.17	6.17106
1101.06	7.70161
1103.96	9.39008
1106.85	10.5271
1109.74	12.9021
1112.63	15.2063
1115.53	18.0849
1118.42	21.8471
1121.31	25.3402
1124.21	30.4991
1127.1	36.2778
1129.99	39.0714
1132.88	38.5342
1135.78	31.9814
1138.67	25.9307
1141.56	20.5402
1144.45	16.5152
1147.35	15.8151
1150.24	14.0007
1153.13	14.0363
1156.03	13.2436
1158.92	13.2369
1161.81	11.791
1164.7	10.8168
1167.6	10.6222
1170.49	10.0942
1173.38	9.73114
1176.27	9.66287
1179.17	8.67102
1182.06	6.79873
1184.95	5.11956
1187.85	2.81765
1190.74	1.48613
1193.63	0.078278
1196.52	1.10859
1199.42	0.223537
1202.31	0.033859
1205.2	1.37154
1208.09	1.61663
1210.99	2.68843
1213.88	3.10805
1216.77	3.28373
1219.66	3.37206
1222.56	3.60785
1225.45	2.9559
1228.34	2.14302
1231.24	2.36224
1234.13	0.962826
1237.02	1.33884
1239.91	0.601757
1242.81	1.26587
1245.7	1.60172
1248.59	0.067656
1251.48	0.74489
1254.38	0.037416
1257.27	0.172646
1260.16	0.071074
1263.06	0.554598
1265.95	0.379869
1268.84	0.660133
1271.73	0.621771
1274.63	0.826256
1277.52	0.728392
1280.41	0.342506
1283.3	0.463715
1286.2	0.518694
1289.09	1.10363
1291.98	0.442377
1294.88	0.532949
1297.77	0.000999
1300.66	0
