Measurement: Raman, 532 nm, unoriented, Raman Data Processed
Mineral: Anapaite
Rruff sample: R141081
Ideal chemistry: Ca_2_Fe^2+^(PO_4_)_2_4H_2_O
Locality: Messel mine, Messel, Darmstadt, Hesse, Germany
Source: Rock Currier
Description: Pale green to colorless subparallel aggregates. Associated with messelite (R140175) and pyrite
Measured chemistry: (Ca_1.95_Mg_0.05_)(Fe_0.99_Mg_0.02_)(P_1.00_O_4_)_2_Â·4H_2_O ; The grey portion is anapaite and the bright portion is pyrite.
Raman shift (cm-1)	intensity
94.1222	0
97.4971	53.1632
100.872	417.201
104.247	241.819
107.621	18.8915
110.996	551.79
114.371	533.345
117.746	177.783
121.121	126.178
124.496	129.859
127.87	100.005
131.245	89.8794
134.62	81.4924
137.995	82.4673
141.37	112.254
144.744	196.744
148.119	514.115
151.494	1660.34
154.869	771.24
158.244	1117.97
161.619	221.455
164.993	67.7893
168.368	80.8875
171.743	259.326
175.118	144.152
178.493	6.35815
181.868	53.1633
185.242	279.394
188.617	446.99
191.992	164.683
195.367	269.468
198.742	754.107
202.116	1922.05
205.491	1930.85
208.866	512.003
212.241	337.909
215.616	589.423
218.99	1331.7
222.365	2462.12
225.74	1743.16
229.115	885.572
232.49	741.662
235.865	406.217
239.239	150.922
242.614	92.0327
245.989	141.218
249.364	108.117
252.739	21.376
256.113	41.7439
259.488	17.9783
262.863	67.4604
266.238	192.321
269.613	182.2
272.988	71.5249
276.362	86.9517
279.737	241.972
283.112	602.25
286.487	1292.51
289.862	1628.69
293.236	903.22
296.611	470.766
299.986	366.598
303.361	325.242
306.736	185.542
310.111	95.0244
313.485	36.2559
316.86	31.1787
320.235	38.8523
323.61	104.949
326.985	206.854
330.359	367.324
333.734	599.49
337.109	698.03
340.484	524.715
343.859	350.62
347.233	332.546
350.608	415.428
353.983	481.183
357.358	329.767
360.733	166.076
364.108	72.5847
367.482	33.1855
370.857	5.02661
374.232	10.3498
377.607	1.44775
380.982	0.094971
384.356	4.18555
387.731	1.7561
391.106	5.32202
394.481	2.98828
397.856	2.85742
401.231	17.5652
404.605	30.4097
407.98	40.4534
411.355	65.6834
414.73	86.9917
418.105	145.256
421.479	237.667
424.854	393.844
428.229	721.255
431.604	1245.27
434.979	1505.1
438.354	1095.77
441.728	894.908
445.103	924.485
448.478	839.745
451.853	574.102
455.228	349.454
458.603	233.425
461.977	157.578
465.352	113.444
468.727	82.8054
472.102	65.4485
475.477	50.0754
478.851	50.3953
482.226	30.5674
485.601	35.4773
488.976	33.2649
492.351	21.2761
495.726	15.9251
499.1	10.252
502.475	2.29443
505.85	0.171875
509.225	6.84546
512.6	1.11523
515.974	0.298096
519.349	1.20215
522.724	0.849609
526.099	3.43262
529.474	9.52563
532.848	1.22461
536.223	4
539.598	27.468
542.973	108.478
546.348	395.02
549.722	438.161
553.097	81.8977
556.472	12.9246
559.847	2.43408
563.222	9.08667
566.597	13.7871
569.971	37.8472
573.346	99.3838
576.721	222.252
580.096	506.003
583.471	908.096
586.846	783.307
590.22	369.665
593.595	183.571
596.97	108.733
600.345	54.843
603.72	26.6333
607.094	21.9534
610.469	35.4246
613.844	61.7293
617.219	128.763
620.594	254.721
623.968	356.863
627.343	224.934
630.718	132.547
634.093	108.374
637.468	130.299
640.843	187.765
644.217	289.771
647.592	447.847
650.967	660.049
654.342	873.678
657.717	843.015
661.091	587.812
664.466	359.65
667.841	217.589
671.216	125.304
674.591	72.4487
677.966	35.6611
681.34	31.1152
684.715	8.39087
688.09	1.7832
691.465	1.72192
694.84	15.6018
698.215	5.93823
701.589	5.23169
704.964	0.77417
708.339	5.06274
711.714	5.20239
715.089	7.44897
718.463	9.19653
721.838	11.4468
725.213	15.5273
728.588	15.5933
731.963	13.6775
735.337	13.4731
738.712	24.2322
742.087	35.9783
745.462	44.9836
748.837	44.99
752.212	57.0979
755.586	46.1455
758.961	49.2024
762.336	59.8074
765.711	63.3528
769.086	80.8003
772.46	103.327
775.835	125.476
779.21	134.252
782.585	137.74
785.96	133.945
789.335	118.471
792.709	108.733
796.084	105.707
799.459	105.303
802.834	105.793
806.209	119.967
809.583	117.547
812.958	88.8877
816.333	63.2881
819.708	60.3962
823.083	50.4102
826.457	33.7034
829.832	21.7188
833.207	14.4619
836.582	12.4194
839.957	10.1992
843.332	12.6751
846.706	8.97729
850.081	3.29956
853.456	2.08496
856.831	14.4985
860.206	13.2385
863.581	0.276611
866.955	15.7141
870.33	7.80347
873.705	3.11646
877.08	3.2544
880.455	2.05957
883.829	0.244385
887.204	6.41064
890.579	30.1738
893.954	69.813
897.329	94.3481
900.703	148.25
904.078	211.892
907.453	313.883
910.828	440.875
914.203	663.086
917.578	924.337
920.952	1262.23
924.327	1673.42
927.702	2170.41
931.077	2881.04
934.452	4017.27
937.827	5903.38
941.201	8584.18
944.576	10050.5
947.951	7762.17
951.326	4685.69
954.701	2845.33
958.075	1959.72
961.45	1666.17
964.825	1731.2
968.2	1439.92
971.575	770.16
974.949	421.445
978.324	242.777
981.699	156.277
985.074	104.32
988.449	82.5176
991.823	90.4697
995.198	147.728
998.573	237.392
1001.95	180.536
1005.32	69.5342
1008.7	12.7344
1012.07	7.87939
1015.45	14.3027
1018.82	14.0015
1022.2	13.2305
1025.57	6.05615
1028.95	65.3701
1032.32	154.798
1035.7	362.656
1039.07	626.649
1042.45	580.69
1045.82	336.485
1049.19	176.532
1052.57	101.621
1055.94	59.4863
1059.32	53.8852
1062.69	94.9927
1066.07	202.034
1069.44	454.826
1072.82	657.107
1076.19	364.25
1079.57	149.966
1082.94	71.3091
1086.32	31.5796
1089.69	15.3325
1093.07	12.7363
1096.44	1.81738
1099.82	3.74853
1103.19	2.22705
1106.57	13.9517
1109.94	1.38428
1113.32	1.79199
1116.69	3.74512
1120.07	8.56445
1123.44	3.10303
1126.82	8.5791
1130.19	2.78906
1133.57	5.03662
1136.94	8.89307
1140.32	16.9526
1143.69	14.9253
1147.07	14.2612
1150.44	17.5654
1153.82	21.5561
1157.19	29.8779
1160.56	11.3511
1163.94	0.336426
1167.31	5.30762
1170.69	10.292
1174.06	16.0698
1177.44	5.04834
1180.81	8.83301
1184.19	12.3882
1187.56	15.7153
1190.94	16.0859
1194.31	11.5898
1197.69	17.0361
1201.06	8.21533
1204.44	17.6992
1207.81	14.1753
1211.19	21.9898
1214.56	18.8721
1217.94	7.91455
1221.31	23.1811
1224.69	17.2339
1228.06	0.294434
1231.44	12.9639
1234.81	7.76367
1238.18	10.7705
1241.56	12.311
1244.93	17.7568
1248.31	22.2256
1251.68	24.1611
1255.06	18.8296
1258.43	22.3657
1261.81	12.4312
1265.18	0.267578
1268.56	5.26807
1271.93	2.59863
1275.31	8.22705
1278.68	8.96045
1282.06	1.89941
1285.43	13.2236
1288.81	9.84815
1292.18	1.96728
1295.56	11.5049
1298.93	10.7456
