Measurement: Raman, 532 nm, unoriented, Raman Data Processed
Mineral: Axinite-(Mn)
Rruff sample: R160079
Ideal chemistry: Ca_4_Mn^2+^_2_Al_4_[B_2_Si_8_O_30_](OH)_2_
Locality: Huachuca Mountains, Cochise County, Arizona, USA
Source: Carl Richardson
Description: Orange-yellow aggregates of flattened crystals on quartz. This sample was donated to UAMM as tinzenite (#13189). X-ray diffraction data show that it is axinite-(Mn).
Raman shift (cm-1)	intensity
114.171	0
117.546	1.01407
120.921	1.93393
124.296	20.6583
127.67	34.1026
131.045	59.9309
134.42	79.4922
137.795	120.724
141.17	156.294
144.544	120.667
147.919	100.487
151.294	62.3033
154.669	47.5198
158.044	39.4523
161.418	34.727
164.793	33.791
168.168	40.3448
171.543	53.0967
174.918	45.6205
178.293	28.1414
181.667	20.6871
185.042	18.1905
188.417	21.1055
191.792	32.3793
195.167	33.7318
198.542	32.2451
201.916	41.3944
205.291	55.4515
208.666	66.49
212.041	64.0707
215.416	40.3531
218.79	17.4803
222.165	2.64181
225.54	3.49609
228.915	5.27484
232.29	4.19858
235.664	2.24719
239.039	7.04794
242.414	13.3481
245.789	16.5547
249.164	22.9283
252.538	35.4213
255.913	39.2085
259.288	33.7361
262.663	35.0031
266.038	38.4506
269.413	45.6608
272.787	59.1425
276.162	60.7777
279.537	45.3192
282.912	38.6172
286.287	41.5236
289.661	36.9878
293.036	27.5918
296.411	28.2118
299.786	32.8547
303.161	42.0629
306.536	51.0778
309.91	53.0278
313.285	67.606
316.66	91.6406
320.035	120.589
323.41	110.317
326.784	73.9941
330.159	56.7402
333.534	53.7838
336.909	61.5473
340.284	67.3907
343.659	47.3088
347.033	28.3389
350.408	16.6774
353.783	10.6321
357.158	0.596985
360.533	2.66656
363.908	4.16596
367.282	0.279785
370.657	0.164978
374.032	3.59937
377.407	5.60938
380.782	10.0628
384.156	20.8952
387.531	24.7325
390.906	19.1334
394.281	12.2544
397.656	11.772
401.031	14.4456
404.405	16.5131
407.78	24.8271
411.155	40.24
414.53	53.3371
417.905	46.4254
421.279	41.5917
424.654	39.3874
428.029	47.0328
431.404	49.1406
434.779	34.0697
438.154	26.4982
441.528	29.576
444.903	25.6838
448.278	9.79755
451.653	2.90015
455.028	0.699463
458.402	0.464966
461.777	0.536133
465.152	1.08447
468.527	5.2644
471.902	5.84576
475.276	9.72064
478.651	13.9318
482.026	16.4699
485.401	11.9882
488.776	3.36169
492.151	1.7005
495.525	0.938293
498.9	5.20941
502.275	8.34729
505.65	13.6276
509.025	14.944
512.399	9.07593
515.774	3.3706
519.149	0.584473
522.524	2.93884
525.899	0.232605
529.274	3.51263
532.648	9.71741
536.023	12.4883
539.398	16.5335
542.773	20.6135
546.148	24.8252
549.523	27.6471
552.897	30.1545
556.272	33.9467
559.647	33.5471
563.022	34.1497
566.396	26.4062
569.771	25.4482
573.146	25.5552
576.521	23.7663
579.896	21.2781
583.271	23.4926
586.645	21.8496
590.02	16.9501
593.395	8.33771
596.77	7.5296
600.145	6.57605
603.519	10.0974
606.894	14.2786
610.269	13.9658
613.644	8.8645
617.019	6.93347
620.394	6.68561
623.768	4.87189
627.143	0.7854
630.518	3.38702
633.893	4.8031
637.268	8.82147
640.643	11.3846
644.017	10.2587
647.392	4.05261
650.767	0.355286
654.142	1.1369
657.517	1.9046
660.891	1.83789
664.266	0.690674
667.641	7.14496
671.016	15.4777
674.391	22.8015
677.765	29.8059
681.14	21.6747
684.515	13.4314
687.89	8.13818
691.265	8.64471
694.64	13.0892
698.014	24.691
701.389	43.7129
704.764	73.6483
708.139	114.808
711.514	164.003
714.889	193.397
718.263	152.8
721.638	81.996
725.013	40.4617
728.388	19.6244
731.763	10.2498
735.137	6.0163
738.512	4.29779
741.887	2.91003
745.262	1.5578
748.637	2.12573
752.011	1.73016
755.386	4.05078
758.761	3.79791
762.136	7.29846
765.511	10.3933
768.886	10.1329
772.26	8.8764
775.635	5.76325
779.01	1.84021
782.385	1.41528
785.76	0.177673
789.135	1.92987
792.509	0.103149
795.884	13.8801
799.259	0.825195
802.634	0.636841
806.009	2.46466
809.383	3.4975
812.758	4.28259
816.133	3.55115
819.508	5.16583
822.883	5.12256
826.257	2.4151
829.632	4.43896
833.007	8.04926
836.382	5.46411
839.757	8.63013
843.132	6.73926
846.506	6.61151
849.881	9.16766
853.256	8.90253
856.631	8.61603
860.006	10.4541
863.38	10.4502
866.755	12.1935
870.13	9.34076
873.505	4.98621
876.88	2.08148
880.255	3.27393
883.629	3.28742
887.004	7.37585
890.379	9.09332
893.754	14.225
897.129	18.6291
900.504	16.6627
903.878	10.226
907.253	4.84924
910.628	0.73999
914.003	1.08539
917.378	1.83984
920.752	0.342285
924.127	1.70026
927.502	6.41547
930.877	2.50757
934.252	0.028137
937.626	6.85266
941.001	12.4527
944.376	18.6321
947.751	29.3362
951.126	36.3649
954.5	48.335
957.875	70.5597
961.25	84.7131
964.625	78.2738
968	72.6288
971.375	79.0566
974.75	91.8425
978.124	87.8372
981.499	67.958
984.874	48.9807
988.249	39.2944
991.624	38.3256
994.998	40.429
998.373	41.1085
1001.75	35.6006
1005.12	26.5109
1008.5	16.7831
1011.87	9.25177
1015.25	6.26752
1018.62	1.46759
1022	1.14551
1025.37	1.33051
1028.75	2.42023
1032.12	2.59271
1035.5	1.08679
1038.87	0.637268
1042.25	4.46912
1045.62	6.18823
1048.99	10.7252
1052.37	14.4456
1055.74	17.2715
1059.12	15.4756
1062.49	12.1244
1065.87	9.66138
1069.24	11.8447
1072.62	15.599
1075.99	21.8705
1079.37	26.5729
1082.74	26.095
1086.12	20.3776
1089.49	13.2111
1092.87	11.6044
1096.24	7.57019
1099.62	5.69641
1102.99	4.81348
1106.37	5.48413
1109.74	4.81799
1113.12	3.76208
1116.49	5.98682
1119.87	1.3197
1123.24	1.74426
1126.62	1.59119
1129.99	0.293579
1133.37	0.475586
1136.74	2.33057
1140.12	3.51233
1143.49	1.18603
1146.87	0.721802
1150.24	2.62805
1153.62	2.46497
1156.99	2.31982
1160.36	4.38269
1163.74	7.44946
1167.11	5.46875
1170.49	6.95935
1173.86	5.42822
1177.24	3.58606
1180.61	6.84412
1183.99	5.7666
1187.36	3.06409
1190.74	6.26367
1194.11	8.27954
1197.49	5.98584
1200.86	2.14978
1204.24	4.04907
1207.61	6.41052
1210.99	4.86121
1214.36	3.77185
1217.74	2.85852
1221.11	4.22436
1224.49	4.71533
1227.86	2.58081
1231.24	2.51257
1234.61	1.46362
1237.98	0.223389
1241.36	2.5907
1244.73	0.806152
1248.11	2.66028
1251.48	0.841675
1254.86	4.33069
1258.23	4.57165
1261.61	0.794678
1264.98	0.302246
1268.36	3.60303
1271.73	0.760986
1275.11	1.01428
1278.48	1.10767
1281.86	6.2489
1285.23	3.25134
1288.61	5.88489
1291.98	6.84753
1295.36	0.127808
1298.73	1.25085
