Measurement: Raman, 780 nm, unoriented, Raman Data Processed
Mineral: Axinite-(Mn)
Rruff sample: R160079
Ideal chemistry: Ca_4_Mn^2+^_2_Al_4_[B_2_Si_8_O_30_](OH)_2_
Locality: Huachuca Mountains, Cochise County, Arizona, USA
Source: Carl Richardson
Description: Orange-yellow aggregates of flattened crystals on quartz. This sample was donated to UAMM as tinzenite (#13189). X-ray diffraction data show that it is axinite-(Mn).
Raman shift (cm-1)	intensity
93.3677	0
96.7425	1.69177
100.117	2.19858
103.492	15.856
106.867	35.4897
110.242	35.6326
113.617	14.1402
116.992	1.49426
120.366	1.38939
123.741	2.76779
127.116	5.44438
130.491	11.0336
133.865	11.8099
137.24	23.6865
140.615	40.8564
143.99	27.9235
147.365	22.8283
150.74	6.59241
154.114	2.48048
157.489	3.36674
160.864	2.32713
164.239	3.30042
167.614	9.28079
170.988	17.3333
174.363	15.7108
177.738	5.8017
181.113	2.25706
184.488	1.95291
187.863	4.24838
191.237	12.6585
194.612	12.8682
197.987	9.85844
201.362	15.6492
204.737	24.0333
208.112	30.8607
211.486	30.3497
214.861	21.8497
218.236	10.7983
221.611	2.69589
224.986	1.11589
228.36	1.62012
231.735	0.589417
235.11	1.05066
238.485	2.83171
241.86	5.76128
245.234	8.04048
248.609	8.50505
251.984	13.898
255.359	17.4513
258.734	13.8404
262.109	13.5648
265.483	15.3336
268.858	17.1267
272.233	21.7123
275.608	23.8939
278.983	18.6039
282.358	13.2551
285.732	14.5606
289.107	14.8672
292.482	10.8597
295.857	11.7782
299.232	16.4199
302.606	20.6484
305.981	23.5561
309.356	21.6528
312.731	23.7983
316.106	31.4623
319.481	48.1157
322.855	48.7013
326.23	31.8161
329.605	23.6089
332.98	21.1697
336.355	26.7406
339.729	31.3717
343.104	25.3366
346.479	16.1911
349.854	10.9444
353.229	6.18867
356.603	1.44989
359.978	0.607071
363.353	1.71195
366.728	0.79628
370.103	0.252075
373.478	1.59639
376.852	2.49828
380.227	3.80223
383.602	9.44356
386.977	12.5552
390.352	10.9642
393.726	8.88169
397.101	6.63879
400.476	6.43459
403.851	6.3004
407.226	9.6557
410.601	16.1347
413.975	24.2599
417.35	23.1404
420.725	19.9001
424.1	18.2003
427.475	18.396
430.849	19.2539
434.224	15.2287
437.599	11.0849
440.974	12.8566
444.349	12.8126
447.724	6.66021
451.098	2.41112
454.473	0.877808
457.848	0.270386
461.223	0.228767
464.598	0.892715
467.972	1.89614
471.347	3.72694
474.722	3.66556
478.097	6.19001
481.472	8.54829
484.846	7.17796
488.221	3.64916
491.596	2.02446
494.971	2.29855
498.346	3.00767
501.721	5.19934
505.095	6.74284
508.47	7.9075
511.845	6.2997
515.22	2.44965
518.595	0.042908
521.97	0.890976
525.344	0.351189
528.719	0.129074
532.094	1.14014
535.469	2.04379
538.844	4.60562
542.218	5.59342
545.593	7.07728
548.968	6.48188
552.343	7.66183
555.718	9.15144
559.092	9.51962
562.467	7.94071
565.842	7.321
569.217	7.97636
572.592	8.66002
575.967	8.61294
579.341	7.73201
582.716	8.28416
586.091	8.38863
589.466	6.08481
592.841	3.06723
596.216	1.32031
599.59	1.4897
602.965	2.00612
606.34	2.45353
609.715	2.17653
613.09	2.34922
616.464	2.75638
619.839	3.05856
623.214	1.64181
626.589	0.4916
629.964	0.369926
633.338	1.39946
636.713	3.07646
640.088	4.38651
643.463	4.71667
646.838	2.41521
650.213	0.151657
653.587	0.47657
656.962	0.560585
660.337	0.436317
663.712	2.68291
667.087	2.47695
670.462	4.2534
673.836	7.89139
677.211	10.8662
680.586	9.58179
683.961	5.53273
687.336	3.35009
690.71	2.43224
694.085	3.38121
697.46	5.9315
700.835	11.666
704.21	18.5796
707.585	30.2132
710.959	47.8531
714.334	65.7565
717.709	61.1158
721.084	34.9694
724.459	17.24
727.833	8.58737
731.208	4.71136
734.583	2.65769
737.958	1.66802
741.333	0.820641
744.707	0.266602
748.082	0.851494
751.457	0.746361
754.832	1.68127
758.207	2.43305
761.582	3.30851
764.956	4.79064
768.331	5.42159
771.706	3.88485
775.081	1.58743
778.456	0.957413
781.83	0.406029
785.205	0.004181
788.58	0.645699
791.955	0.284882
795.33	0.565224
798.705	0.002579
802.079	0.285851
805.454	1.20753
808.829	1.18302
812.204	2.08592
815.579	1.53065
818.953	0.705269
822.328	1.04691
825.703	1.29661
829.078	1.13122
832.453	1.90907
835.827	1.43814
839.202	2.11345
842.577	1.94087
845.952	2.024
849.327	2.03272
852.702	2.27884
856.076	2.33189
859.451	2.52237
862.826	2.44985
866.201	2.73952
869.576	1.69012
872.951	1.85807
876.325	1.50708
879.7	1.41769
883.075	1.68053
886.45	1.9457
889.825	3.55796
893.199	4.49107
896.574	6.09304
899.949	6.8592
903.324	5.03969
906.699	2.40157
910.073	1.2337
913.448	0.38443
916.823	0.568451
920.198	0.825027
923.573	0.069649
926.948	0.663277
930.322	0.458275
933.697	0.62571
937.072	1.46691
940.447	2.21471
943.822	4.34376
947.197	6.94768
950.571	9.18721
953.946	12.8792
957.321	17.484
960.696	22.4809
964.071	22.7346
967.445	20.0905
970.82	20.6997
974.195	24.6563
977.57	25.6035
980.945	21.3215
984.319	15.2963
987.694	13.009
991.069	11.6512
994.444	11.7825
997.819	13.0673
1001.19	12.6233
1004.57	10.9397
1007.94	7.34209
1011.32	3.90819
1014.69	1.99787
1018.07	0.746269
1021.44	0.743042
1024.82	0.821053
1028.19	0.486122
1031.57	0.274345
1034.94	0.287842
1038.32	0.203468
1041.69	0.523262
1045.07	0.200638
1048.44	1.10649
1051.82	2.35078
1055.19	3.1041
1058.57	3.35655
1061.94	1.66395
1065.32	0.873802
1068.69	1.01045
1072.07	1.96428
1075.44	3.78915
1078.81	4.97679
1082.19	6.26829
1085.56	5.10571
1088.94	2.5181
1092.31	1.46754
1095.69	0.835209
1099.06	1.18345
1102.44	1.05638
1105.81	1.63777
1109.19	1.22335
1112.56	0.873516
1115.94	0.165821
1119.31	0.073792
1122.69	0.116905
1126.06	0.416969
1129.44	0.461113
1132.81	0.209026
1136.19	0.578156
1139.56	0.175919
1142.94	0.600731
1146.31	0.517567
1149.69	0.344437
1153.06	0.302811
1156.43	0.569748
1159.81	0.577408
1163.18	0.428291
1166.56	0.713001
1169.93	0.479012
1173.31	0.554604
1176.68	0.505749
1180.06	0.670933
1183.43	1.24323
1186.81	0.573936
1190.18	0.881939
1193.56	0.228527
1196.93	0.537804
1200.31	0.322712
1203.68	0.506149
1207.06	0.489185
1210.43	0.120766
1213.81	0.481224
1217.18	0.290688
1220.56	0.282562
1223.93	0.250057
1227.31	0.664192
1230.68	0.347515
1234.06	0.266407
1237.43	0.437836
1240.81	0.41983
1244.18	0.222332
1247.56	0.509968
1250.93	0.789177
1254.31	0.651863
1257.68	0.527
1261.05	0.580379
1264.43	0.724392
1267.8	0.659138
1271.18	0.379089
1274.55	0.334743
1277.93	0.031593
1281.3	0.093193
