Measurement: Raman, 514 nm, unoriented, Raman Data Processed
Mineral: Babingtonite
Rruff sample: X050027
Ideal chemistry: Ca_2_Fe^2+^Fe^3+^Si_5_O_14_(OH)
Locality: Kandivill, India
Source: G.R. Rossman
Raman shift (cm-1)	intensity
208.189	0
213.227	2385.49
218.265	8064.74
223.303	4613.06
228.341	63.039
233.379	277.713
238.417	968.594
243.454	247.279
248.492	795.047
253.53	2403.22
258.568	3219.65
263.606	2342.4
268.644	3129.09
273.682	2808.05
278.72	1382.99
283.758	1859.45
288.796	2221.51
293.833	744.354
298.871	195.174
303.909	472.77
308.947	1505.46
313.985	3762.8
319.023	4736.73
324.061	5637.3
329.099	6350.23
334.137	7133.73
339.174	5792.11
344.212	2346.41
349.25	293.051
354.288	40.934
359.326	1056.45
364.364	1262
369.402	2237.53
374.44	2937.78
379.478	3312.26
384.516	4870.19
389.553	8471.91
394.591	13047.8
399.629	16213
404.667	20407.7
409.705	17644.2
414.743	8776.29
419.781	5494.01
424.819	4358.08
429.857	3241.1
434.894	3583.4
439.932	3091.01
444.97	1041.25
450.008	230.508
455.046	36.621
460.084	307.133
465.122	409.004
470.16	183.158
475.198	720.773
480.235	1351.12
485.273	1848.31
490.311	1857.93
495.349	2225.09
500.387	3234.36
505.425	3400.27
510.463	1816.56
515.501	953.135
520.539	674.771
525.576	1515.54
530.614	2855.33
535.652	5084.68
540.69	7391.15
545.728	6560.93
550.766	4511.99
555.804	2755.79
560.842	2170.03
565.88	2828.13
570.917	5078.02
575.955	8767.27
580.993	12288.1
586.031	10093.9
591.069	5542.01
596.107	3021.5
601.145	1541.76
606.183	515.09
611.221	130.164
616.258	46.896
621.296	82.074
626.334	29.088
631.372	198.961
636.41	266.932
641.448	1058.36
646.486	2040.76
651.524	4549.04
656.562	7976.5
661.599	12937.6
666.637	19236
671.675	16248.2
676.713	7286.26
681.751	3218.06
686.789	1686.68
691.827	781.674
696.865	229.143
701.903	114.568
706.94	38.076
711.978	60.598
717.016	98.947
722.054	191.557
727.092	907.326
732.13	1656.08
737.168	1105.53
742.206	371.025
747.244	102.189
752.282	144.92
757.319	131.018
762.357	336.176
767.395	428.676
772.433	213.373
777.471	320.365
782.509	255.025
787.547	102.672
792.585	57.654
797.623	50.705
802.661	84.967
807.698	66.742
812.736	29.873
817.774	5.777
822.812	141.941
827.85	48.701
832.888	139.82
837.926	169.514
842.964	443.844
848.002	1009.48
853.039	1692.95
858.077	3588.57
863.115	6519.88
868.153	10901
873.191	14385.3
878.229	11992.9
883.267	8394.49
888.305	7231.02
893.343	7590.08
898.38	9920.88
903.418	13433.9
908.456	15255.5
913.494	14630.1
918.532	7440.43
923.57	2275.18
928.608	615.762
933.646	23.871
938.683	565.453
943.721	1402.34
948.759	2364.27
953.797	3441.95
958.835	4673.42
963.873	4372.59
968.911	3247.65
973.949	2876.78
978.987	3249.8
984.024	3815.61
989.062	4968.2
994.1	7618.1
999.138	11221.4
1004.18	17660.6
1009.21	23908
1014.25	24053.6
1019.29	19348.1
1024.33	14344
1029.37	7157.76
1034.4	3971.59
1039.44	3814.21
1044.48	3994.03
1049.52	4492.67
1054.56	5703.02
1059.59	8915.08
1064.63	6927.15
1069.67	2825.21
1074.71	1438.41
1079.74	891.982
1084.78	521.055
1089.82	471.953
1094.86	384.486
1099.9	618.461
1104.93	1027.9
1109.97	1624.38
1115.01	1826.25
1120.05	1203.75
1125.09	600.156
1130.12	468.5
1135.16	164.719
1140.2	249.973
1145.24	208.098
1150.28	217.727
1155.31	52.947
1160.35	35.189
1165.39	96.674
1170.43	1.975
1175.46	55.271
1180.5	57.049
1185.54	114.078
1190.58	74.455
1195.62	206.461
1200.65	81.762
1205.69	210.223
1210.73	137.477
1215.77	259.062
1220.81	145.914
1225.84	310.756
1230.88	364.018
1235.92	221.906
1240.96	194.123
1245.99	228.928
1251.03	496.666
1256.07	240.041
1261.11	268.748
1266.15	212.711
1271.18	161.91
1276.22	260.643
1281.26	319.672
1286.3	241.881
1291.34	300.117
1296.37	369.152
1301.41	356.672
1306.45	364.508
1311.49	362.125
1316.53	172.842
1321.56	212.443
1326.6	255.674
1331.64	96.281
1336.68	20.457
1341.71	231.51
1346.75	228.379
1351.79	190.387
1356.83	304.779
1361.87	313.477
1366.9	134.461
1371.94	267.844
1376.98	304.049
1382.02	436.617
1387.06	210.814
1392.09	196.285
1397.13	87.357
1402.17	260.52
1407.21	100.555
1412.24	79.793
1417.28	191.525
1422.32	165.521
1427.36	127.428
1432.4	181.416
1437.43	129.881
1442.47	305.85
1447.51	230.564
1452.55	288.643
1457.59	181.012
1462.62	310.303
1467.66	216.312
1472.7	0.881
1477.74	184.949
1482.78	256.002
1487.81	135.221
1492.85	70.523
1497.89	1.93
