Measurement: Raman, 532 nm, unoriented, Raman Data Processed
Mineral: Beusite
Rruff sample: R160031
Ideal chemistry: Mn^2+^Mn^2+^_2_(PO_4_)_2_
Locality: Santa Ana Pegmatite, Argentina
Source: Jaroslav Hyr≈°l
Description: Orange massive
Raman shift (cm-1)	intensity
89.0137	0
92.3885	48.7893
95.7633	62.6936
99.1381	72.5748
102.513	92.6355
105.888	93.1564
109.263	101.064
112.637	56.6105
116.012	65.21
119.387	55.7517
122.762	53.8298
126.137	84.3444
129.512	101.384
132.886	79.3213
136.261	32.2506
139.636	31.4662
143.011	28.0829
146.386	52.7167
149.76	85.3476
153.135	69.4887
156.51	42.5634
159.885	4.72751
163.26	4.62595
166.635	9.24005
170.009	6.1658
173.384	7.32184
176.759	22.6273
180.134	40.5787
183.508	54.7851
186.883	68.1846
190.258	74.4408
193.633	75.5098
197.008	79.3861
200.383	76.4314
203.757	73.5326
207.132	71.9914
210.507	69.682
213.882	68.3731
217.257	67.1675
220.631	59.8404
224.006	51.6426
227.381	48.1925
230.756	46.1928
234.131	48.8449
237.506	51.7034
240.88	53.4958
244.255	60.7011
247.63	63.1823
251.005	69.3174
254.38	67.2226
257.755	60.1176
261.129	46.0893
264.504	30.6197
267.879	18.8294
271.254	11.0239
274.629	5.29207
278.003	5.26057
281.378	2.97307
284.753	1.39734
288.128	0.294235
291.503	0.456802
294.877	1.9492
298.252	0.089401
301.627	0.631622
305.002	1.75667
308.377	5.81876
311.752	9.45146
315.126	12.4878
318.501	16.1923
321.876	20.3409
325.251	24.0674
328.626	28.2132
332	33.0542
335.375	36.5195
338.75	42.1557
342.125	44.9669
345.5	44.3134
348.875	38.5615
352.249	29.8881
355.624	16.496
358.999	4.1387
362.374	3.90382
365.749	7.90442
369.123	7.46957
372.498	2.2951
375.873	9.27675
379.248	25.8394
382.623	46.0224
385.998	68.0558
389.372	94.3081
392.747	115.387
396.122	142.637
399.497	178.778
402.872	231.032
406.246	290.485
409.621	345.46
412.996	386.999
416.371	420.137
419.746	426.894
423.12	377.776
426.495	300.081
429.87	248.33
433.245	229.943
436.62	254.41
439.995	307.858
443.369	383.662
446.744	474.182
450.119	543.569
453.494	554.186
456.869	508.556
460.243	450.147
463.618	391.295
466.993	336.456
470.368	280.59
473.743	231.11
477.118	184.03
480.492	145.358
483.867	116.029
487.242	88.8919
490.617	66.1106
493.992	48.0713
497.366	33.5917
500.741	19.741
504.116	9.65906
507.491	1.94954
510.866	3.39993
514.241	5.86528
517.615	5.88467
520.99	7.14432
524.365	5.62529
527.74	1.03863
531.115	8.59093
534.49	14.0682
537.864	30.7046
541.239	56.5775
544.614	83.1092
547.989	108.717
551.364	140.84
554.738	165.137
558.113	170.597
561.488	178.27
564.863	204.649
568.238	228.198
571.612	233.074
574.987	261.618
578.362	334.61
581.737	451.654
585.112	582.994
588.486	657.313
591.861	608.99
595.236	474.519
598.611	305.006
601.986	168.937
605.361	92.6088
608.735	58.8962
612.11	51.4116
615.485	54.1268
618.86	63.6947
622.235	71.5043
625.61	77.4434
628.984	86.4343
632.359	98.1934
635.734	120.76
639.109	148.86
642.484	156.189
645.858	128.1
649.233	88.2926
652.608	58.295
655.983	34.2998
659.358	18.7966
662.732	9.62328
666.107	2.114
669.482	0.498154
672.857	1.87862
676.232	2.30229
679.607	2.02657
682.981	2.34651
686.356	2.71749
689.731	1.34786
693.106	0.357117
696.481	0.59433
699.856	0.869415
703.23	0.746445
706.605	2.65295
709.98	3.51585
713.355	1.05093
716.73	3.69005
720.104	3.48154
723.479	6.57057
726.854	6.56021
730.229	4.95563
733.604	5.29956
736.979	4.34456
740.353	2.2274
743.728	2.82599
747.103	2.27109
750.478	2.34035
753.852	1.80322
757.227	0.125824
760.602	0.322571
763.977	0.537994
767.352	0.142273
770.727	0.931259
774.101	2.57588
777.476	3.04681
780.851	4.24649
784.226	5.58168
787.601	6.98583
790.976	8.63791
794.35	11.084
797.725	21.9064
801.1	17.4077
804.475	25.9509
807.85	22.2764
811.224	23.3796
814.599	25.3639
817.974	29.4533
821.349	29.7979
824.724	31.0121
828.098	33.9581
831.473	34.4619
834.848	34.7238
838.223	34.8561
841.598	38.2569
844.973	40.1918
848.347	44.5739
851.722	50.547
855.097	56.448
858.472	64.6624
861.847	70.2184
865.221	72.3067
868.596	70.0446
871.971	64.9984
875.346	58.761
878.721	55.103
882.096	46.5179
885.47	40.1578
888.845	32.8738
892.22	24.8261
895.595	18.7098
898.97	10.6383
902.345	2.96143
905.719	3.0193
909.094	9.97301
912.469	13.8833
915.844	17.2575
919.219	16.6575
922.593	13.6453
925.968	2.97452
929.343	19.5521
932.718	57.8783
936.093	130.19
939.467	271.026
942.842	521.529
946.217	946.529
949.592	1676.94
952.967	2720.63
956.342	3933.84
959.716	5318.54
963.091	6545.36
966.466	6784.44
969.841	5155.51
973.216	3048.73
976.591	1752.08
979.965	1064.36
983.34	705.618
986.715	548.199
990.09	496.257
993.465	514.214
996.839	607.893
1000.21	797.945
1003.59	1088.01
1006.96	1467.37
1010.34	1867.8
1013.71	2274.55
1017.09	2708.4
1020.46	3140.57
1023.84	3440.09
1027.21	3392.35
1030.59	2799.17
1033.96	1949.3
1037.34	1223.34
1040.71	744.775
1044.09	452.794
1047.46	280.349
1050.84	177.235
1054.21	101.758
1057.59	50.5873
1060.96	17.5739
1064.34	2.95551
1067.71	8.57864
1071.09	11.6393
1074.46	22.8866
1077.84	22.6341
1081.21	10.6303
1084.59	2.138
1087.96	21.6621
1091.33	45.0261
1094.71	87.4583
1098.08	144.255
1101.46	233.354
1104.83	360.957
1108.21	518.369
1111.58	679.834
1114.96	766.838
1118.33	697.698
1121.71	526.425
1125.08	352.871
1128.46	225.58
1131.83	141.006
1135.21	80.2776
1138.58	42.329
1141.96	20.0521
1145.33	9.27225
1148.71	0.477661
1152.08	0.22496
1155.46	0.632416
1158.83	1.09453
1162.2	1.5583
1165.58	2.83121
1168.95	5.99486
1172.33	6.72691
1175.7	9.4924
1179.08	11.5155
1182.45	14.0222
1185.83	22.3535
1189.2	14.9551
1192.58	13.5549
1195.95	16.0149
1199.33	13.3677
1202.7	15.6663
1206.08	14.0985
1209.45	12.8675
1212.83	10.4526
1216.2	8.57881
1219.58	10.6091
1222.95	7.92721
1226.33	7.04188
1229.7	7.62933
1233.08	6.47923
1236.45	7.75185
1239.83	7.79397
1243.2	8.80314
1246.58	9.47116
1249.95	10.9431
1253.33	11.5689
1256.7	11.5798
1260.08	12.0227
1263.45	12.1531
1266.83	11.6306
1270.2	9.97843
1273.57	9.77442
1276.95	10.368
1280.32	9.4984
1283.7	8.84333
1287.07	5.46157
1290.45	4.40676
1293.82	2.09481
1297.2	1.34582
1300.57	0.733955
