Measurement: Raman, 780 nm, unoriented, Raman Data Processed
Mineral: Beusite
Rruff sample: R160031
Ideal chemistry: Mn^2+^Mn^2+^_2_(PO_4_)_2_
Locality: Santa Ana Pegmatite, Argentina
Source: Jaroslav Hyr≈°l
Description: Orange massive
Raman shift (cm-1)	intensity
145.355	0
148.247	12.9116
151.14	15.7807
154.033	16.5779
156.925	14.0991
159.818	11.4811
162.711	8.64554
165.603	2.21741
168.496	0.839417
171.389	0.052002
174.282	0.583252
177.174	3.12079
180.067	6.44562
182.96	9.23733
185.852	12.8573
188.745	11.4859
191.638	12.8252
194.53	12.9388
197.423	10.6504
200.316	6.74106
203.209	7.11655
206.101	6.89905
208.994	8.65993
211.887	9.49866
214.779	10.1108
217.672	11.1575
220.565	12.6247
223.458	15.3751
226.35	19.5629
229.243	18.6179
232.136	19.997
235.028	22.0416
237.921	24.2841
240.814	25.945
243.706	26.6754
246.599	27.172
249.492	26.3743
252.385	24.4895
255.277	24.0561
258.17	20.719
261.063	16.9596
263.955	12.545
266.848	7.5508
269.741	2.97446
272.633	0.009964
275.526	0.175125
278.419	1.00609
281.312	0.074051
284.204	0.653046
287.097	1.10376
289.99	1.22366
292.882	1.18684
295.775	2.19771
298.668	2.44194
301.56	2.98337
304.453	4.72907
307.346	5.39113
310.238	7.30936
313.131	8.58083
316.024	7.29516
318.917	10.367
321.809	10.5315
324.702	11.4131
327.595	12.7091
330.487	12.3205
333.38	12.8586
336.273	12.7672
339.166	14.2297
342.058	13.4845
344.951	12.055
347.844	11.5197
350.736	9.19428
353.629	7.41265
356.522	3.93156
359.414	0.439148
362.307	0.942841
365.2	2.28561
368.093	2.42239
370.985	0.830032
373.878	0.902565
376.771	3.2369
379.663	7.17805
382.556	14.4397
385.449	19.7954
388.341	27.5582
391.234	32.6211
394.127	38.2926
397.02	44.9982
399.912	53.7571
402.805	64.6117
405.698	80.0508
408.59	96.2364
411.483	111.216
414.376	125.092
417.269	139.109
420.161	138.53
423.054	123.303
425.947	96.2959
428.839	73.1578
431.732	60.5941
434.625	56.7296
437.517	60.2005
440.41	69.0016
443.303	82.8402
446.195	100.817
449.088	115.936
451.981	126.048
454.874	121.327
457.766	111.213
460.659	99.5027
463.552	88.9648
466.444	78.9642
469.337	67.8937
472.23	56.2937
475.123	47.5425
478.015	39.6601
480.908	31.161
483.801	25.2635
486.693	21.1357
489.586	16.2882
492.479	13.0545
495.371	9.96278
498.264	6.54606
501.157	3.76477
504.05	2.05557
506.942	0.872551
509.835	0.013344
512.727	0.875023
515.62	1.90037
518.513	0.749763
521.406	1.49323
524.298	0.964417
527.191	1.14204
530.084	0.402107
532.976	1.87984
535.869	4.4681
538.762	8.57766
541.654	13.9524
544.547	20.9612
547.44	26.1037
550.333	32.0339
553.225	37.5346
556.118	39.1458
559.011	36.5766
561.903	36.3465
564.796	42.3653
567.689	47.1424
570.582	47.0401
573.474	49.2135
576.367	54.6683
579.26	68.8454
582.152	89.7713
585.045	117.496
587.938	135.938
590.831	136.009
593.723	118.943
596.616	90.5317
599.509	57.1728
602.401	33.8676
605.294	18.9733
608.187	13.1172
611.079	10.6093
613.972	9.51929
616.865	11.5886
619.758	14.4529
622.65	14.9325
625.543	16.1498
628.436	16.1822
631.328	19.0085
634.221	23.0127
637.114	30.4715
640.006	36.6774
642.899	38.1035
645.792	31.6764
648.684	22.8189
651.577	16.5349
654.47	10.4607
657.363	7.42592
660.255	4.28909
663.148	2.0481
666.041	1.13242
668.933	0.337059
671.826	0.138153
674.719	0.165909
677.611	0.846851
680.504	1.06081
683.397	0.033585
686.29	0.097794
689.182	0.394989
692.075	0.292328
694.968	0.24242
697.86	0.325497
700.753	0.156696
703.646	1.10975
706.538	0.139755
709.431	0.067711
712.324	1.93226
715.217	1.47387
718.109	1.3401
721.002	0.956329
723.895	1.93788
726.787	1.1551
729.68	2.01114
732.573	1.91952
735.466	1.86341
738.358	1.37317
741.251	0.194176
744.144	1.09263
747.036	0.213699
749.929	0.577606
752.822	1.44789
755.714	0.213249
758.607	0.178558
761.5	0.565918
764.393	0.597893
767.285	0.055092
770.178	1.09228
773.071	0.145088
775.963	0.576813
778.856	0.723572
781.749	1.43186
784.641	0.727295
787.534	2.70004
790.427	3.14324
793.319	2.96514
796.212	2.34669
799.105	3.04404
801.998	3.69595
804.89	4.42074
807.783	3.70329
810.676	4.75887
813.568	5.39431
816.461	5.09821
819.354	6.27177
822.246	5.97663
825.139	5.73047
828.032	7.12814
830.925	6.57851
833.817	6.77512
836.71	6.39833
839.603	6.8514
842.495	7.94488
845.388	8.53227
848.281	8.79577
851.173	9.64172
854.066	10.4399
856.959	11.0318
859.852	11.2319
862.744	11.5426
865.637	12.2851
868.53	11.6615
871.422	11.3052
874.315	10.8898
877.208	9.19087
880.101	8.96579
882.993	7.63366
885.886	6.34918
888.779	5.5845
891.671	4.5152
894.564	3.34329
897.457	2.34125
900.349	1.3768
903.242	0.581802
906.135	0.655991
909.028	1.11738
911.92	1.68728
914.813	1.87171
917.706	2.10451
920.598	1.95827
923.491	1.77013
926.384	0.503365
929.276	1.51167
932.169	7.22755
935.062	11.8308
937.955	21.5004
940.847	39.711
943.74	67.3847
946.633	112.769
949.525	185.612
952.418	290.193
955.311	418.779
958.203	585.687
961.096	769.133
963.989	933.843
966.881	952.988
969.774	738.814
972.667	470.414
975.56	294.675
978.452	188.615
981.345	126.267
984.238	93.0507
987.13	79.7135
990.023	73.3656
992.916	74.0505
995.808	81.887
998.701	97.3169
1001.59	123.107
1004.49	162.044
1007.38	208.595
1010.27	252.074
1013.16	298.938
1016.06	351.158
1018.95	404.284
1021.84	457.423
1024.73	494.226
1027.63	482.226
1030.52	411.382
1033.41	301.402
1036.31	203.695
1039.2	133.375
1042.09	85.8156
1044.98	55.9977
1047.88	36.46
1050.77	23.7078
1053.66	14.0546
1056.56	9.33194
1059.45	3.6869
1062.34	0.415215
1065.23	0.150536
1068.13	1.90347
1071.02	1.871
1073.91	2.26527
1076.8	2.70763
1079.7	2.2376
1082.59	0.003464
1085.48	1.33947
1088.38	3.93789
1091.27	5.50891
1094.16	10.1704
1097.05	15.4148
1099.95	23.4402
1102.84	35.8998
1105.73	51.0133
1108.62	71.1015
1111.52	90.5783
1114.41	104.523
1117.3	100.829
1120.19	82.8911
1123.09	63.1938
1125.98	42.9389
1128.87	29.4983
1131.77	19.6376
1134.66	12.4657
1137.55	7.34635
1140.44	4.58839
1143.34	2.52457
1146.23	0.805328
1149.12	0.041996
1152.01	0.04277
1154.91	0.712742
1157.8	0.068932
1160.69	0.516663
1163.59	0.073029
1166.48	1.02837
1169.37	0.328014
1172.26	1.63773
1175.16	1.62251
1178.05	1.32514
1180.94	2.26545
1183.83	1.38919
1186.73	2.45898
1189.62	2.44379
1192.51	2.48528
1195.4	2.94623
1198.3	2.95745
1201.19	2.41514
1204.08	3.05129
1206.98	2.36767
1209.87	2.44791
1212.76	2.23682
1215.65	1.49469
1218.55	1.17085
1221.44	0.955856
1224.33	1.39424
1227.22	0.912518
1230.12	0.528183
1233.01	1.35755
1235.9	1.29574
1238.8	0.823364
1241.69	1.31433
1244.58	0.367695
1247.47	0.893028
1250.37	1.23898
1253.26	0.718582
1256.15	1.45082
1259.04	1.22453
1261.94	0.83704
1264.83	1.35439
1267.72	0.800934
1270.62	0.415482
1273.51	0.340588
1276.4	0.25005
1279.29	0.235798
1282.19	0.638977
