Measurement: Raman, 532 nm, unoriented, Raman Data Processed
Mineral: Calaverite
Rruff sample: R070164
Ideal chemistry: AuTe_2_
Locality: Vindicator mine, Cripple Creek, Teller County, Colorado, USA
Source: Michael Scott
Description: Loose pale gold colored metallic fragments associated with quartz, used to define ICDD pattern
Measured chemistry: (Au_0.90_Ag_0.10_)_Î£=1_Te_2.00_
Raman shift (cm-1)	intensity
128.004	0
131.379	48.8758
134.754	140.705
138.129	343.982
141.504	412.74
144.878	456.796
148.253	591.174
151.628	737.178
155.003	775.854
158.378	590.348
161.752	343.292
165.127	175.944
168.502	140.556
171.877	94.5994
175.252	14.4025
178.626	8.04144
182.001	14.887
185.376	4.69525
188.751	8.67065
192.126	3.69617
195.5	13.342
198.875	1.58014
202.25	1.43848
205.625	11.4177
209	11.8253
212.375	17.7714
215.749	10.7723
219.124	5.32611
222.499	23.8739
225.874	14.7462
229.249	3.52948
232.624	4.30536
235.998	30.2756
239.373	3.00647
242.748	0.509583
246.123	33.5121
249.498	7.0199
252.872	25.3159
256.247	24.0531
259.622	18.2754
262.997	47.744
266.372	30.5121
269.746	23.094
273.121	35.4191
276.496	48.0955
279.871	32.8347
283.246	20.5432
286.62	28.4833
289.995	34.244
293.37	17.4369
296.745	41.9467
300.12	49.2777
303.495	55.398
306.869	21.0967
310.244	34.9865
313.619	19.387
316.994	25.1208
320.369	57.313
323.743	27.1138
327.118	41.3762
330.493	25.1057
333.868	36.9157
337.243	27.3961
340.618	12.0692
343.992	38.3918
347.367	34.4155
350.742	26.652
354.117	9.52728
357.492	20.2289
360.866	10.7416
364.241	32.1613
367.616	36.6205
370.991	10.459
374.366	31.1317
377.74	9.63415
381.115	34.7837
384.49	13.5284
387.865	6.56146
391.24	29.0105
394.615	11.7082
397.989	13.1832
401.364	19.5555
404.739	10.4628
408.114	40.8225
411.489	26.3895
414.863	29.4289
418.238	31.2722
421.613	33.3223
424.988	30.6706
428.363	31.7581
431.738	9.38324
435.112	28.3242
438.487	20.998
441.862	1.25848
445.237	27.8972
448.612	6.71301
451.986	17.0006
455.361	37.0054
458.736	26.9168
462.111	48.1591
465.486	39.6136
468.86	30.6823
472.235	14.3609
475.61	18.826
478.985	10.7856
482.36	10.809
485.735	30.6926
489.109	23.6433
492.484	15.6805
495.859	30.8594
499.234	8.35052
502.609	26.2665
505.983	28.445
509.358	49.71
512.733	26.1622
516.108	48.458
519.483	12.4332
522.857	11.0118
526.232	21.6064
529.607	22.806
532.982	15.3297
536.357	22.1937
539.731	2.74292
543.106	11.539
546.481	22.7693
549.856	21.4152
553.231	1.71905
556.606	3.03906
559.98	16.2908
563.355	18.1604
566.73	32.2438
570.105	18.581
573.48	26.4772
576.855	38.3677
580.229	34.2474
583.604	23.954
586.979	11.6631
590.354	27.1553
593.729	31.3918
597.103	22.4542
600.478	20.6986
603.853	10.4207
607.228	14.0591
610.603	9.16028
613.977	6.8761
617.352	18.1518
620.727	15.7709
624.102	8.89496
627.477	36.2749
630.851	38.6511
634.226	23.4422
637.601	9.56018
640.976	25.4952
644.351	9.16235
647.726	29.9148
651.1	27.9009
654.475	7.53418
657.85	46.3269
661.225	18.8482
664.6	56.6542
667.974	27.0392
671.349	24.1837
674.724	27.3124
678.099	16.6843
681.474	33.6219
684.848	40.49
688.223	23.575
691.598	9.15771
694.973	7.69385
698.348	13.1472
701.723	17.4678
705.097	6.84479
708.472	4.15576
711.847	18.1979
715.222	29.0174
718.597	37.4543
721.971	11.1074
725.346	34.3634
728.721	51.2445
732.096	37.4042
735.471	14.6782
738.846	12.5138
742.22	23.67
745.595	42.5983
748.97	22.8362
752.345	26.3559
755.72	31.0581
759.094	35.2526
762.469	30.6665
765.844	4.24207
769.219	23.8108
772.594	5.16797
775.968	21.8923
779.343	15.1796
782.718	17.7553
786.093	20.5227
789.468	5.32068
792.843	16.847
796.217	18.5893
799.592	48.3471
802.967	31.4202
806.342	2.78052
809.717	38.2673
813.091	5.46893
816.466	46.9413
819.841	2.57678
823.216	34.8162
826.591	9.33661
829.966	19.8926
833.34	23.3298
836.715	15.1832
840.09	20.3017
843.465	32.9172
846.84	3.74799
850.214	23.8544
853.589	39.9149
856.964	9.63672
860.339	0.060059
863.714	8.07532
867.088	20.972
870.463	21.1176
873.838	31.5946
877.213	19.423
880.588	10.9938
883.962	13.664
887.337	8.2207
890.712	52.6807
894.087	64.5953
897.462	10.7864
900.837	0.44165
904.211	16.5113
907.586	14.0184
910.961	18.5817
914.336	26.1675
917.711	28.4363
921.086	30.1514
924.46	31.0906
927.835	31.6541
931.21	16.6603
934.585	19.8578
937.96	2.77747
941.334	13.8372
944.709	1.47949
948.084	13.1197
951.459	37.2745
954.834	21.2943
958.208	48.161
961.583	35.4063
964.958	42.8351
968.333	37.6163
971.708	16.3968
975.082	36.3481
978.457	32.1727
981.832	42.5497
985.207	13.6914
988.582	33.4256
991.957	23.8856
995.331	20.636
998.706	20.5762
1002.08	35.7883
1005.46	36.9456
1008.83	15.1972
1012.21	4.91144
1015.58	18.9037
1018.96	2.23364
1022.33	20.7848
1025.7	13.1751
1029.08	14.9347
1032.45	6.36511
1035.83	19.7622
1039.2	42.9333
1042.58	45.3463
1045.95	39.4147
1049.33	35.1549
1052.7	7.53149
1056.08	23.5066
1059.45	8.41492
1062.83	1.07581
1066.2	25.2328
1069.58	1.49109
1072.95	54.7999
1076.33	25.8595
1079.7	20.2129
1083.08	13.5914
1086.45	34.1676
1089.83	12.9248
1093.2	15.8406
1096.58	22.9481
1099.95	28.9805
1103.33	22.86
1106.7	24.6245
1110.08	16.8359
1113.45	25.1722
1116.83	20.0706
1120.2	30.1085
1123.57	48.3755
1126.95	43.3627
1130.32	13.8195
1133.7	7.15222
1137.07	33.2463
1140.45	18.9675
1143.82	15.5354
1147.2	14.5376
1150.57	36.5531
1153.95	4.42944
1157.32	26.8556
1160.7	30.7107
1164.07	18.9613
1167.45	3.18433
1170.82	9.98364
1174.2	15.5533
1177.57	7.44495
1180.95	2.75806
1184.32	40.2799
1187.7	49.4872
1191.07	45.1736
1194.44	9.42822
1197.82	8.45471
1201.19	26.0284
1204.57	37.1938
1207.94	27.2477
1211.32	25.2709
1214.69	29.3618
1218.07	7.58899
1221.44	29.0427
1224.82	30.6913
1228.19	38.8879
1231.57	38.1431
1234.94	18.8737
1238.32	28.3389
1241.69	3.94568
1245.07	18.1379
1248.44	13.0486
1251.82	38.2013
1255.19	26.5729
1258.57	24.6677
1261.94	0.536133
1265.32	2.34448
1268.69	34.1377
1272.07	31.2209
1275.44	46.9202
1278.82	43.6592
1282.19	28.2693
1285.57	25.2007
1288.94	59.4456
1292.32	33.8403
1295.69	1.01758
1299.07	35.3033
