Measurement: Raman, 532 nm, unoriented, Raman Data Processed
Mineral: Calaverite
Rruff sample: R060134
Ideal chemistry: AuTe_2_
Locality: Cripple Creek, Teller County, Colorado, USA
Source: University of Arizona Mineral Museum
Description: Silver thick prismatic crystals with gold tarnish associated with quartz
Measured chemistry: (Au_1.89_Ag_0.11_)_Î£=2_Te_4.00_
Raman shift (cm-1)	intensity
130.279	0
133.654	1.25664
137.029	7.5615
140.404	12.0128
143.779	12.1182
147.154	18.7579
150.528	25.9028
153.903	25.663
157.278	22.4489
160.653	15.7276
164.028	11.2512
167.403	9.89315
170.777	8.95054
174.152	7.78144
177.527	6.32267
180.902	3.12719
184.277	1.99272
187.651	0.385094
191.026	0.372796
194.401	0.009038
197.776	0.02639
201.151	0.038588
204.525	0.208098
207.9	0.251151
211.275	0.152957
214.65	0.088703
218.025	0.233082
221.4	0.463327
224.774	1.14787
228.149	1.13801
231.524	1.27099
234.899	1.68642
238.274	1.49458
241.649	1.69446
245.023	1.6241
248.398	2.0297
251.773	2.07702
255.148	1.69589
258.523	2.43135
261.897	1.61122
265.272	1.93285
268.647	2.05658
272.022	1.04301
275.397	0.694036
278.772	0.91757
282.146	1.25564
285.521	0.779255
288.896	0.418288
292.271	1.11982
295.646	1.26238
299.021	1.37179
302.395	1.4962
305.77	1.02789
309.145	1.30179
312.52	1.03719
315.895	0.721006
319.269	1.66706
322.644	1.35843
326.019	0.946478
329.394	1.04718
332.769	0.7463
336.144	0.240789
339.518	0.115897
342.893	0.02543
346.268	0.121385
349.643	0.784707
353.018	0.011458
356.392	0.535215
359.767	0.185247
363.142	0.237423
366.517	0.325421
369.892	0.005174
373.267	0.670788
376.641	0.643176
380.016	0.138939
383.391	0.351579
386.766	0.613445
390.141	0.030633
393.515	0.579817
396.89	0.041187
400.265	0.07013
403.64	0.166625
407.015	0.415358
410.39	0.829202
413.764	0.644703
417.139	0.443062
420.514	0.011025
423.889	0.048879
427.264	0.780513
430.639	0.17121
434.013	0.534912
437.388	0.036592
440.763	0.503049
444.138	0.000316
447.513	1.39277
450.887	0.829806
454.262	0.262971
457.637	0.031046
461.012	0.635597
464.387	0.710301
467.762	0.608175
471.136	0.065296
474.511	0.377163
477.886	0.818899
481.261	0.484522
484.636	0.885862
488.01	0.809011
491.385	0.460605
494.76	0.33468
498.135	0.029156
501.51	0.359639
504.885	0.003875
508.259	0.043218
511.634	0.670981
515.009	0.039732
518.384	0.471238
521.759	0.165329
525.134	0.431403
528.508	0.494542
531.883	0.215901
535.258	0.438793
538.633	1.28171
542.008	0.240262
545.382	0.831942
548.757	0.946913
552.132	0.230238
555.507	1.16144
558.882	0.528704
562.256	0.5024
565.631	0.108868
569.006	0.767502
572.381	0.001031
575.756	0.794171
579.131	0.040276
582.505	0.370051
585.88	0.335141
589.255	0.44624
592.63	0.257255
596.005	0.952322
599.38	0.008582
602.754	0.63414
606.129	0.945389
609.504	0.362237
612.879	0.511988
616.254	0.01596
619.629	0.031859
623.003	0.074638
626.378	0.629425
629.753	0.672925
633.128	0.003917
636.503	1.5152
639.877	0.018289
643.252	0.508205
646.627	0.38234
650.002	0.255551
653.377	1.42218
656.751	1.13579
660.126	0.803622
663.501	0.221264
666.876	0.490089
670.251	0.106935
673.626	0.014561
677	0.011851
680.375	0.401715
683.75	0.559119
687.125	0.512444
690.5	0.906598
693.875	0.027405
697.249	0.173568
700.624	0.090235
703.999	0.018716
707.374	0.479956
710.749	0.408605
714.124	0.031619
717.498	0.488495
720.873	0.688938
724.248	0.592288
727.623	0.247853
730.998	0.593872
734.372	0.009538
737.747	0.014229
741.122	1.15383
744.497	0.433192
747.872	0.369914
751.246	1.06263
754.621	0.711637
757.996	0.00421
761.371	0.802821
764.746	0.803635
768.121	0.192959
771.495	0.710085
774.87	0.861201
778.245	0.716933
781.62	0.309338
784.995	0.288041
788.37	0.040148
791.744	0.551512
795.119	0.912227
798.494	0.002611
801.869	0.423493
805.244	1.14249
808.619	0.002521
811.993	0.033333
815.368	0.133797
818.743	0.493998
822.118	0.473096
825.493	0.098271
828.867	0.009185
832.242	0.559567
835.617	0.017761
838.992	1.14524
842.367	0.62456
845.741	0.77965
849.116	0.495367
852.491	0.259704
855.866	0.705444
859.241	0.627196
862.616	0.384967
865.99	0.678669
869.365	0.789883
872.74	0.499009
876.115	1.13435
879.49	0.975924
882.865	0.550278
886.239	0.493744
889.614	0.476526
892.989	0.707585
896.364	0.026221
899.739	0.344443
903.114	0.352655
906.488	0.032248
909.863	0.858071
913.238	0.336329
916.613	1.05436
919.988	0.173851
923.362	0.692343
926.737	0.002787
930.112	0.02876
933.487	0.336429
936.862	0.510431
940.236	0.099489
943.611	0.579836
946.986	0.5569
950.361	0.669635
953.736	0.251203
957.111	0.075732
960.486	0.034683
963.86	0.270997
967.235	0.316726
970.61	0.5218
973.985	0.186
977.36	0.114747
980.734	0.202561
984.109	0.455277
987.484	0.785907
990.859	0.979239
994.234	1.19452
997.609	0.504336
1000.98	0.536617
1004.36	0.01129
1007.73	0.221148
1011.11	0.493021
1014.48	0.773504
1017.86	0.123339
1021.23	0.529737
1024.61	0.943207
1027.98	0.672738
1031.36	1.22085
1034.73	0.011488
1038.11	0.751325
1041.48	0.038677
1044.86	0.13791
1048.23	0.371822
1051.61	1.09992
1054.98	0.210555
1058.36	1.6282
1061.73	0.029216
1065.11	0.508023
1068.48	1.20095
1071.85	0.002081
1075.23	0.622742
1078.6	0.383468
1081.98	0.349459
1085.35	0.227942
1088.73	0.691874
1092.1	0.338956
1095.48	0.446419
1098.85	0.376511
1102.23	0.501688
1105.6	0.091224
1108.98	0.240345
1112.35	0.261522
1115.73	0.228159
1119.1	0.563682
1122.48	0.493139
1125.85	0.122524
1129.23	0.193932
1132.6	0.146205
1135.98	0.389937
1139.35	0.911329
1142.73	0.767748
1146.1	0.290374
1149.47	0.119103
1152.85	0.74886
1156.22	0.09393
1159.6	0.025622
1162.97	0.001951
1166.35	0.026347
1169.72	0.000646
1173.1	0.731894
1176.47	0.457103
1179.85	0.366439
1183.22	0.46586
1186.6	0.52019
1189.97	0.984528
1193.35	0.788028
1196.72	1.38697
1200.1	1.30429
1203.47	1.12181
1206.85	0.820038
1210.22	0.448575
1213.6	0.013431
1216.97	0.859924
1220.35	1.27314
1223.72	0.750336
1227.1	0.026091
1230.47	0.206791
1233.85	0.015438
1237.22	0.785862
1240.6	0.34084
1243.97	0.015227
1247.35	0.346716
1250.72	0.481732
1254.1	0.597118
1257.47	0.457719
1260.84	0.07303
1264.22	0.376132
1267.59	0.72115
1270.97	0.489273
1274.34	0.299762
1277.72	0.00898
1281.09	0.532792
1284.47	0.32619
1287.84	0.646862
1291.22	0.02159
1294.59	0.012124
1297.97	0.615378
