Measurement: Raman, 532 nm, unoriented, Raman Data Processed
Mineral: Calcioburbankite
Rruff sample: R140485
Ideal chemistry: Na_3_(Ca,Ce^3+^,Sr,La)_3_(CO_3_)_5_
Locality: Eboundja, Kribi, South Region, Cameroon
Source: Rock Currier
Description: Pink massive
Measured chemistry: (Na_2.89_K_0.02_)(Ca_1.14_Ce_0.61_La_0.39_Sr_0.23_Nd_0.15_Pr_0.06_)(CO_3_)_5_ ; The dark mineral is analcime.
Raman shift (cm-1)	intensity
88.1367	0
91.5115	5.83209
94.8863	5.18568
98.2612	0.086853
101.636	0.332916
105.011	1.05582
108.386	12.2344
111.76	13.5925
115.135	24.1732
118.51	36.2511
121.885	48.7531
125.26	62.2913
128.635	74.3094
132.009	96.5138
135.384	109.758
138.759	128.714
142.134	138.555
145.509	142.669
148.883	141.992
152.258	141.832
155.633	138.525
159.008	127.754
162.383	117.76
165.757	108.132
169.132	93.0918
172.507	78.9942
175.882	66.9337
179.257	52.8938
182.632	44.2222
186.006	35.0934
189.381	31.9726
192.756	25.7927
196.131	26.363
199.506	26.7923
202.881	23.6236
206.255	25.2621
209.63	26.2565
213.005	29.1109
216.38	28.4225
219.755	23.1665
223.129	20.89
226.504	23.0055
229.879	20.7854
233.254	13.3663
236.629	9.38992
240.004	0.223114
243.378	1.66922
246.753	1.94482
250.128	0.919769
253.503	2.25946
256.878	2.82172
260.252	2.95987
263.627	0.628662
267.002	1.04892
270.377	1.41067
273.752	5.15323
277.127	8.28391
280.501	12.3335
283.876	20.4813
287.251	24.7381
290.626	31.0234
294.001	30.667
297.375	23.7083
300.75	24.666
304.125	20.7326
307.5	24.838
310.875	26.5517
314.25	29.3454
317.624	31.2775
320.999	32.0902
324.374	27.7244
327.749	17.4373
331.124	14.3161
334.498	4.31534
337.873	1.5871
341.248	2.54074
344.623	2.48776
347.998	1.11276
351.373	1.83627
354.747	1.9653
358.122	0.475403
361.497	3.64383
364.872	6.01172
368.247	8.92352
371.621	10.2201
374.996	11.4369
378.371	10.4062
381.746	16.5486
385.121	16.8939
388.495	18.8649
391.87	21.4415
395.245	22.2756
398.62	21.5303
401.995	20.4883
405.37	19.1295
408.744	20.7816
412.119	20.2699
415.494	20.1755
418.869	14.8226
422.244	12.333
425.618	12.5544
428.993	12.2665
432.368	10.9742
435.743	12.0857
439.118	8.78918
442.493	11.4452
445.867	9.94907
449.242	19.0331
452.617	5.31888
455.992	4.384
459.367	4.62677
462.741	5.45596
466.116	6.96036
469.491	4.82666
472.866	5.754
476.241	2.15982
479.615	4.00821
482.99	2.6731
486.365	4.00754
489.74	2.81497
493.115	4.84622
496.49	2.95416
499.864	5.54184
503.239	8.01175
506.614	3.18014
509.989	3.26898
513.364	2.04501
516.739	0.708679
520.113	3.13809
523.488	3.52628
526.863	2.65124
530.238	1.78909
533.613	1.16464
536.987	6.90707
540.362	2.241
543.737	0.252472
547.112	2.17532
550.487	0.43924
553.861	1.2951
557.236	1.35779
560.611	0.401123
563.986	1.37524
567.361	2.27496
570.736	0.700684
574.11	2.82901
577.485	1.4007
580.86	3.30521
584.235	3.14044
587.61	4.73352
590.985	4.25619
594.359	0.854156
597.734	2.69312
601.109	2.84
604.484	3.19675
607.859	4.6731
611.233	5.77682
614.608	6.83618
617.983	7.07498
621.358	6.03912
624.733	5.29361
628.107	2.508
631.482	2.98343
634.857	1.61969
638.232	3.54571
641.607	3.04208
644.982	0.350708
648.356	2.6955
651.731	1.15524
655.106	1.32098
658.481	0.170959
661.856	0.63324
665.231	1.86169
668.605	0.185974
671.98	2.21191
675.355	2.53705
678.73	1.55194
682.105	3.29315
685.479	11.2125
688.854	17.6441
692.229	19.7201
695.604	23.694
698.979	29.5699
702.354	31.8671
705.728	38.6495
709.103	52.4735
712.478	45.6248
715.853	45.0234
719.227	52.0565
722.602	34.2035
725.977	31.3013
729.352	24.0652
732.727	17.9033
736.102	15.4883
739.476	11.3319
742.851	4.81409
746.226	8.50104
749.601	10.1625
752.976	6.00085
756.351	6.64044
759.725	9.79486
763.1	8.0473
766.475	8.24847
769.85	11.0797
773.225	12.2389
776.599	11.9047
779.974	16.9141
783.349	20.9655
786.724	22.6321
790.099	19.1087
793.473	24.5427
796.848	23.8535
800.223	25.113
803.598	20.6074
806.973	19.2772
810.348	17.9163
813.722	16.9144
817.097	16.6479
820.472	13.4052
823.847	18.9243
827.222	12.1439
830.597	16.4129
833.971	12.1745
837.346	13.655
840.721	11.6284
844.096	9.07709
847.471	2.1225
850.846	2.10877
854.22	11.7502
857.595	11.0586
860.97	8.44885
864.345	4.2489
867.72	1.18457
871.094	3.13977
874.469	10.1733
877.844	0.492554
881.219	5.84766
884.594	4.30933
887.968	4.57104
891.343	0.487671
894.718	1.39709
898.093	8.35889
901.468	12.1953
904.842	17.903
908.217	30.5315
911.592	30.4603
914.967	43.8654
918.342	56.0692
921.717	66.5358
925.091	76.4956
928.466	94.246
931.841	112.652
935.216	125.465
938.591	145.964
941.966	166.208
945.34	182.56
948.715	207.487
952.09	233.004
955.465	246.662
958.84	265.301
962.214	288.748
965.589	300.227
968.964	303.792
972.339	302.969
975.714	302.915
979.088	289.309
982.463	270.867
985.838	252.439
989.213	236.383
992.588	216.757
995.963	195.429
999.337	180.168
1002.71	158.965
1006.09	138.375
1009.46	117.925
1012.84	94.8304
1016.21	79.2454
1019.59	68.944
1022.96	51.5641
1026.34	43.0369
1029.71	27.7103
1033.09	32.7178
1036.46	20.1345
1039.84	3.70337
1043.21	5.18628
1046.59	6.0564
1049.96	6.375
1053.33	8.91602
1056.71	49.9648
1060.08	108.624
1063.46	197.781
1066.83	321.537
1070.21	424.479
1073.58	539.504
1076.96	626.415
1080.33	571.359
1083.71	485.062
1087.08	388.677
1090.46	302.88
1093.83	174.271
1097.21	92.218
1100.58	46.2671
1103.96	23.1533
1107.33	4.79346
1110.71	9.84741
1114.08	6.14551
1117.46	3.55029
1120.83	14.9009
1124.21	10.165
1127.58	2.4021
1130.95	6.82031
1134.33	13.6096
1137.7	25.1731
1141.08	31.043
1144.45	25.293
1147.83	26.6758
1151.2	32.6853
1154.58	32.855
1157.95	36.78
1161.33	44.6768
1164.7	34.2041
1168.08	25.2756
1171.45	30.2156
1174.83	34.4563
1178.2	32.3721
1181.58	31.2646
1184.95	25.2654
1188.33	29.915
1191.7	30.2012
1195.08	29.3469
1198.45	38.0884
1201.83	28.8347
1205.2	21.5244
1208.58	30.4011
1211.95	23.9021
1215.33	28.7837
1218.7	31.7522
1222.08	24.8875
1225.45	16.9382
1228.83	15.7449
1232.2	14.1291
1235.58	21.843
1238.95	25.5911
1242.32	23.5444
1245.7	24.4627
1249.07	28.3633
1252.45	22.7988
1255.82	26.0989
1259.2	23.7156
1262.57	21.1528
1265.95	16.6038
1269.32	11.4592
1272.7	8.27075
1276.07	1.07056
1279.45	9.771
1282.82	15.3442
1286.2	0.534668
1289.57	2.9668
1292.95	6.70483
1296.32	10.9375
1299.7	2.11597
