Measurement: Raman, 780 nm, unoriented, Raman Data Processed
Mineral: Celsian
Rruff sample: R170048
Ideal chemistry: BaAl_2_Si_2_O_8_
Locality: Big Creek, Pine Flat Lake, Trimmer, Fresno County, California, USA
Source: Gunnar FÃ¤rber
Description: Colorless anhedral grains in matrix associated with cerchiaraite-(Fe) R160021 and pellyite R160023
Raman shift (cm-1)	intensity
87.582	0
90.9569	3267.8
94.3317	4820.73
97.7065	2259.53
101.081	1394.32
104.456	1379.24
107.831	1820.18
111.206	1068.73
114.581	700.447
117.955	330.438
121.33	441.469
124.705	838.062
128.08	999.91
131.455	996.445
134.829	1011.34
138.204	192.508
141.579	179.398
144.954	176.711
148.329	101.959
151.704	266.424
155.078	650.809
158.453	1163.52
161.828	2201.31
165.203	3116.65
168.578	4169.62
171.952	4072.87
175.327	2732.72
178.702	1485.56
182.077	743.578
185.452	523.898
188.827	537.885
192.201	1025.93
195.576	1587.17
198.951	776.393
202.326	159.41
205.701	19.1016
209.076	94.9394
212.45	30.9316
215.825	236.254
219.2	542.186
222.575	601.447
225.95	226.838
229.324	413.81
232.699	594.664
236.074	1284.65
239.449	2012.1
242.824	3177.06
246.198	4177.31
249.573	3139.32
252.948	2389.5
256.323	2288.45
259.698	1397.55
263.073	740.734
266.447	354.465
269.822	121.965
273.197	40.9492
276.572	66.3594
279.947	76.3848
283.322	31.9453
286.696	207.834
290.071	393.565
293.446	692.102
296.821	828.662
300.196	1306.63
303.57	2151.89
306.945	2034.43
310.32	919.016
313.695	428.193
317.07	112.422
320.445	90.2519
323.819	49.8672
327.194	40.3828
330.569	12.1035
333.944	111.305
337.319	56.1602
340.693	118.326
344.068	134.853
347.443	399.791
350.818	577.656
354.193	934.332
357.567	742.227
360.942	254.457
364.317	134.906
367.692	162.002
371.067	62.1738
374.442	40.8828
377.816	93.3809
381.191	40.0742
384.566	37.3828
387.941	13.9805
391.316	228.353
394.69	58.627
398.065	160.023
401.44	195.607
404.815	477.793
408.19	831.598
411.565	939.545
414.939	568.904
418.314	515.488
421.689	594.623
425.064	870.098
428.439	1065.48
431.813	580.717
435.188	225.629
438.563	15.6055
441.938	22.2715
445.313	65.3945
448.688	259.828
452.062	314.223
455.437	594.031
458.812	1162.21
462.187	1671.04
465.562	1453.42
468.937	1011.84
472.311	664.619
475.686	354.103
479.061	284.441
482.436	179.975
485.81	326.725
489.185	576.502
492.56	993.467
495.935	1500.21
499.31	2275.04
502.685	3544.97
506.059	5119.71
509.434	4583.32
512.809	2136.67
516.184	948.914
519.559	455.842
522.933	193.185
526.308	158.576
529.683	109.883
533.058	73.2012
536.433	103.543
539.808	19.0977
543.182	11.0449
546.557	109.629
549.932	273.1
553.307	265.498
556.682	278.291
560.057	126.488
563.431	27.3867
566.806	47.9336
570.181	27.5176
573.556	4
576.931	93.791
580.305	85.8945
583.68	16.9473
587.055	67.5234
590.43	48.6777
593.805	187.879
597.18	93.9648
600.554	117.312
603.929	113.211
607.304	45.0352
610.679	62.4141
614.054	133.35
617.428	144.91
620.803	175.119
624.178	133.039
627.553	92.2324
630.928	97.7324
634.303	20.9883
637.677	103.758
641.052	3.99609
644.427	36.1113
647.802	35.1777
651.177	49.3281
654.552	13.0781
657.926	98.9727
661.301	45.4062
664.676	157.885
668.051	241.231
671.426	371.926
674.8	583.758
678.175	828.842
681.55	975.609
684.925	928.894
688.3	562.709
691.674	286.35
695.049	331.18
698.424	254.635
701.799	242.838
705.174	295.768
708.548	410.965
711.923	530.322
715.298	470.617
718.673	340.504
722.048	348.379
725.423	229.387
728.797	172.617
732.172	139.625
735.547	190.606
738.922	169.16
742.297	305.312
745.672	549.484
749.046	782.047
752.421	635.82
755.796	333.492
759.171	161.894
762.546	64.6797
765.92	53.1309
769.295	33.8438
772.67	34.5449
776.045	82.5293
779.42	18.9316
782.795	11.1094
786.169	8.34766
789.544	32.7441
792.919	18.2275
796.294	70.6797
799.669	134.27
803.043	56.291
806.418	58.1973
809.793	13.5225
813.168	25.4414
816.543	112.013
819.918	206.788
823.292	144
826.667	5.03516
830.042	78.5293
833.417	175.515
836.792	139.141
840.166	112.978
843.541	122.986
846.916	108.944
850.291	125.242
853.666	102.881
857.04	139.556
860.415	220.193
863.79	224.681
867.165	117.84
870.54	103.169
873.915	153.023
877.289	32.3809
880.664	169.612
884.039	100.76
887.414	100.201
890.789	94.8623
894.163	14.2324
897.538	24.3555
900.913	4.09473
904.288	79.3516
907.663	43.8477
911.038	138.25
914.412	83.8564
917.787	64.8975
921.162	72.7754
924.537	36.3037
927.912	25.5693
931.287	59.8242
934.661	87.1894
938.036	169.023
941.411	167.572
944.786	86.6533
948.161	69.165
951.535	15.9512
954.91	7.39453
958.285	11.9141
961.66	18.5166
965.035	65.0264
968.409	63.0381
971.784	74.9248
975.159	137.951
978.534	384.897
981.909	785.132
985.284	1044.61
988.658	536.31
992.033	269.916
995.408	172.947
998.783	111.394
1002.16	260.571
1005.53	182.529
1008.91	236.352
1012.28	354.584
1015.66	407.266
1019.03	259.892
1022.41	157.873
1025.78	115.074
1029.16	116.547
1032.53	164.542
1035.91	119.404
1039.28	87.9619
1042.66	39.3965
1046.03	9.24316
1049.4	37.1738
1052.78	25.126
1056.15	173.515
1059.53	195.763
1062.9	141.311
1066.28	3.54883
1069.65	99.332
1073.03	61.0381
1076.4	32.8935
1079.78	129.518
1083.15	109.756
1086.53	107.578
1089.9	146.197
1093.28	28.2227
1096.65	70.4394
1100.03	47.7451
1103.4	49.1816
1106.78	103.936
1110.15	15.1475
1113.53	16.1338
1116.9	35.6191
1120.28	52.0244
1123.65	80.2529
1127.03	47.1514
1130.4	32.0772
1133.78	58.1924
1137.15	31.1055
1140.53	101.992
1143.9	64.6592
1147.28	138.036
1150.65	100.51
1154.03	164.86
1157.4	130.909
1160.77	128.814
1164.15	93.2627
1167.52	188.388
1170.9	45.7471
1174.27	200.731
1177.65	123.19
1181.02	114.128
1184.4	134.886
1187.77	103.927
1191.15	128.309
1194.52	153.034
1197.9	86.2256
1201.27	43.7353
1204.65	89.6875
1208.02	122.116
1211.4	181.119
1214.77	155.466
1218.15	60.0566
1221.52	194.942
1224.9	72.791
1228.27	10.9922
1231.64	55.082
1235.02	76.3682
1238.39	119.331
1241.77	88.6836
1245.14	115.605
1248.52	69.4473
1251.89	10.335
1255.27	63.4043
1258.64	0.030273
1262.02	66.5127
1265.39	155.788
1268.77	36.2578
1272.14	91.8897
1275.52	43.2969
1278.89	88.0127
1282.27	0
