Measurement: Raman, 532 nm, unoriented, Raman Data Processed
Mineral: Dickinsonite-(KMnNa)
Rruff sample: R160070
Ideal chemistry: K(NaMn^2+^)CaNa_3_AlMn^2+^_13_(PO_4_)_12_(OH)_2_
Locality: Smith mine, Newport, New Hampshire, USA
Source: Rock Currier
Description: Pale yellowish green granular crystals, associated with muscovite and albite.
Raman shift (cm-1)	intensity
139.723	0
143.098	3.05701
146.473	2.7511
149.848	6.27918
153.222	7.82007
156.597	11.5756
159.972	10.5185
163.347	13.7649
166.722	9.96619
170.097	10.3543
173.471	4.23377
176.846	6.80835
180.221	6.73828
183.596	2.84363
186.971	1.48438
190.345	1.02478
193.72	3.22815
197.095	11.1757
200.47	17.4397
203.845	15.2313
207.22	12.7642
210.594	15.384
213.969	14.7776
217.344	14.6428
220.719	6.71753
224.094	11.5261
227.469	6.25757
230.843	3.70667
234.218	8.56372
237.593	13.7677
240.968	9.03552
244.343	0.223145
247.717	2.83569
251.092	4.86939
254.467	5.06921
257.842	2.99365
261.217	7.22974
264.591	7.42835
267.966	0.852783
271.341	5.99133
274.716	7.61548
278.091	9.23267
281.466	4.3114
284.84	10.7195
288.215	11.2072
291.59	5.22913
294.965	0.181152
298.34	7.67627
301.714	10.9324
305.089	11.7433
308.464	8.68201
311.839	7.19739
315.214	4.17456
318.589	0.071533
321.963	4.82361
325.338	1.68396
328.713	4.55457
332.088	5.52502
335.463	3.49988
338.837	4.224
342.212	1.21375
345.587	2.01404
348.962	0.588013
352.337	10.0276
355.712	2.70203
359.086	6.46301
362.461	1.65137
365.836	0.282227
369.211	0.223755
372.586	0.240723
375.96	7.22705
379.335	15.2559
382.71	19.949
386.085	36.5846
389.46	53.0886
392.834	74.7096
396.209	104.479
399.584	134.163
402.959	162.903
406.334	172.287
409.709	175.149
413.083	163.51
416.458	152.881
419.833	141.481
423.208	129.418
426.583	120.249
429.957	113.708
433.332	109.283
436.707	99.6835
440.082	98.9784
443.457	103.911
446.832	110.557
450.206	114.704
453.581	120.121
456.956	128.751
460.331	127.111
463.706	124.54
467.08	126.099
470.455	122.731
473.83	121.601
477.205	113.401
480.58	102.605
483.955	97.5427
487.329	69.9053
490.704	57.2405
494.079	35.6464
497.454	19.9454
500.829	14.788
504.204	6.60364
507.578	3.64539
510.953	0.485718
514.328	6.76099
517.703	9.51282
521.078	10.3857
524.452	3.10791
527.827	8.69446
531.202	18.8363
534.577	41.9175
537.952	48.7927
541.327	69.4495
544.701	102.247
548.076	132.654
551.451	149.233
554.826	154.848
558.201	149.448
561.575	130.716
564.95	121.443
568.325	119.114
571.7	127.775
575.075	133.892
578.449	148.665
581.824	155.308
585.199	167.405
588.574	168.439
591.949	169.434
595.323	174.912
598.698	188.168
602.073	191.776
605.448	183.231
608.823	159.174
612.198	127.014
615.572	96.8016
618.947	72.0392
622.322	63.229
625.697	69.1239
629.072	81.1213
632.447	107.127
635.821	132.274
639.196	134.302
642.571	126.145
645.946	101.741
649.321	74.4171
652.695	50.0604
656.07	32.6853
659.445	17.1439
662.82	7.71033
666.195	2.42615
669.569	4.15271
672.944	0.851074
676.319	2.66162
679.694	1.31811
683.069	2.61499
686.444	4.07288
689.818	1.01172
693.193	2.177
696.568	2.91504
699.943	1.58289
703.318	1.36462
706.692	2.73071
710.067	2.60156
713.442	4.20422
716.817	5.02405
720.192	5.64282
723.567	6.4707
726.941	6.68396
730.316	8.46301
733.691	8.96777
737.066	10.3251
740.441	12.3474
743.816	9.08594
747.19	9.23462
750.565	5.70984
753.94	4.104
757.315	0.682251
760.69	2.37268
764.064	1.67505
767.439	1.32007
770.814	3.37122
774.189	9.17236
777.564	9.11279
780.938	12.731
784.313	9.21765
787.688	7.54382
791.063	12.9419
794.438	18.6688
797.813	17.2836
801.187	18.6312
804.562	19.5581
807.937	20.59
811.312	25.6451
814.687	27.6537
818.062	35.7191
821.436	49.3988
824.811	63.7386
828.186	73.8076
831.561	81.3047
834.936	87.6879
838.31	90.8223
841.685	92.7869
845.06	85.1913
848.435	76.5382
851.81	68.0099
855.184	59.8793
858.559	45.705
861.934	34.5884
865.309	26.5806
868.684	24.2971
872.059	9.63184
875.433	5.68823
878.808	11.0178
882.183	15.397
885.558	17.261
888.933	12.4907
892.308	2.6189
895.682	18.0635
899.057	30.8857
902.432	29.6035
905.807	26.0439
909.182	37.2693
912.556	57.6157
915.931	82.4224
919.306	96.2695
922.681	95.1741
926.056	105.25
929.431	133.037
932.805	185.464
936.18	237.522
939.555	289.642
942.93	331.147
946.305	363.653
949.679	423.659
953.054	490.729
956.429	577.25
959.804	644.217
963.179	682.036
966.553	688.312
969.928	744.553
973.303	873.841
976.678	1016.27
980.053	1094.95
983.428	1133.83
986.802	1132.89
990.177	1120.69
993.552	1065.41
996.927	995.083
1000.3	886.588
1003.68	758.588
1007.05	612.418
1010.43	483.778
1013.8	389.148
1017.18	326.251
1020.55	273.06
1023.92	219.538
1027.3	172.123
1030.67	119.059
1034.05	87.9446
1037.42	55.2105
1040.8	33.1792
1044.17	27.4907
1047.55	9.80029
1050.92	3.25366
1054.3	7.07837
1057.67	13.4793
1061.05	10.9497
1064.42	9.61475
1067.8	10.2786
1071.17	3.19507
1074.55	2.35181
1077.92	6.0874
1081.3	10.1118
1084.67	17.2612
1088.05	35.7571
1091.42	36.0967
1094.8	36.7588
1098.17	38.5474
1101.55	42.1958
1104.92	46.1777
1108.3	55.637
1111.67	59.7454
1115.05	58.5325
1118.42	50.1509
1121.8	49.044
1125.17	43.0735
1128.55	40.4836
1131.92	40.3723
1135.29	44.8457
1138.67	58.4058
1142.04	62.6836
1145.42	60.8706
1148.79	53.1062
1152.17	49.2561
1155.54	45.4087
1158.92	49.0706
1162.29	32.1316
1165.67	23.0398
1169.04	16.6235
1172.42	6.48633
1175.79	1.27588
1179.17	2.03076
1182.54	2.89062
1185.92	4.90747
1189.29	7.01831
1192.67	6.17481
1196.04	6.81519
1199.42	2.56738
1202.79	7.49487
1206.17	4.72754
1209.54	10.1704
1212.91	3.5
1216.29	5.75171
1219.66	8.83716
1223.04	14.0896
1226.41	15.8264
1229.79	6.83716
1233.16	11.6548
1236.54	5.14844
1239.91	3.53638
1243.29	5.9646
1246.66	6.46826
1250.04	6.50586
1253.41	11.2009
1256.79	12.8135
1260.16	11.094
1263.54	5.44751
1266.91	12.8935
1270.29	5.58496
1273.66	4.21338
1277.04	4.06274
1280.41	3.17139
1283.79	3.29272
1287.16	8.44873
1290.54	8.05566
1293.91	1.25806
1297.29	1.31226
1300.66	0
