Measurement: Raman, 780 nm, unoriented, Raman Data Processed
Mineral: Dickinsonite-(KMnNa)
Rruff sample: R160070
Ideal chemistry: K(NaMn^2+^)CaNa_3_AlMn^2+^_13_(PO_4_)_12_(OH)_2_
Locality: Smith mine, Newport, New Hampshire, USA
Source: Rock Currier
Description: Pale yellowish green granular crystals, associated with muscovite and albite.
Raman shift (cm-1)	intensity
99.1531	0
102.528	0.069977
105.903	12.4454
109.278	1.07675
112.652	1.32614
116.027	4.16473
119.402	0.06366
122.777	6.58612
126.152	6.25665
129.526	9.8893
132.901	6.99174
136.276	5.1442
139.651	6.90221
143.026	0.521729
146.401	1.96448
149.775	0.95134
153.15	2.24675
156.525	0.283676
159.9	0.824783
163.275	3.46278
166.649	4.42676
170.024	6.82729
173.399	5.53801
176.774	6.59578
180.149	6.07732
183.524	7.1205
186.898	7.08792
190.273	8.38364
193.648	9.50168
197.023	9.95637
200.398	12.5062
203.773	13.728
207.147	12.384
210.522	10.9449
213.897	10.6811
217.272	9.87995
220.647	8.75036
224.021	8.72456
227.396	8.61961
230.771	7.7296
234.146	8.10919
237.521	8.33034
240.895	9.57385
244.27	9.15171
247.645	8.52711
251.02	6.67481
254.395	5.61967
257.769	4.43987
261.144	5.42432
264.519	4.23661
267.894	1.97514
271.269	1.33726
274.644	1.09866
278.018	1.03777
281.393	0.918831
284.768	0.619339
288.143	0.176079
291.518	0.4487
294.892	1.19084
298.267	0.651573
301.642	1.48072
305.017	1.83398
308.392	1.56509
311.767	1.7027
315.141	1.54318
318.516	0.318779
321.891	0.637192
325.266	0.392838
328.641	0.108162
332.015	0.715202
335.39	0.20314
338.765	0.719994
342.14	0.164925
345.515	0.066811
348.89	0.371307
352.264	0.829346
355.639	0.62233
359.014	0.314247
362.389	0.332878
365.764	1.18927
369.139	0.425072
372.513	0.788712
375.888	1.63932
379.263	1.964
382.638	4.05565
386.013	4.72487
389.387	7.47541
392.762	9.04678
396.137	12.6642
399.512	17.3999
402.887	21.8463
406.262	24.7675
409.636	24.9968
413.011	22.6694
416.386	19.3893
419.761	18.5662
423.136	16.5415
426.51	15.0256
429.885	14.0882
433.26	12.6447
436.635	12.493
440.01	13.3847
443.385	14.3362
446.759	14.9662
450.134	16.0105
453.509	15.8387
456.884	16.0275
460.259	15.8405
463.633	16.8045
467.008	16.5318
470.383	16.7565
473.758	16.5195
477.133	15.4362
480.507	14.1139
483.882	11.8479
487.257	10.012
490.632	8.25285
494.007	5.63652
497.382	4.143
500.756	2.31263
504.131	1.48292
507.506	0.438816
510.881	0.402954
514.256	0.893364
517.63	0.607773
521.005	1.42064
524.38	0.275074
527.755	0.948479
531.13	1.11981
534.505	2.48661
537.879	3.88319
541.254	5.66388
544.629	8.814
548.004	13.0188
551.379	15.3301
554.753	16.8456
558.128	16.1362
561.503	13.722
564.878	12.3561
568.253	12.0959
571.628	12.5646
575.002	12.6879
578.377	13.0158
581.752	14.6852
585.127	16.1725
588.502	17.7414
591.876	18.0261
595.251	19.0407
598.626	19.3119
602.001	21.1095
605.376	18.8759
608.75	16.7308
612.125	13.2409
615.5	10.7142
618.875	7.45887
622.25	6.65722
625.625	5.69239
629	7.17248
632.374	10.0991
635.749	12.6418
639.124	15.0793
642.499	14.0908
645.874	11.2311
649.248	9.12567
652.623	5.90768
655.998	3.43544
659.373	1.67009
662.748	1.30907
666.122	0.99221
669.497	0.733833
672.872	0.471275
676.247	0.18364
679.622	0.113197
682.996	0.199177
686.371	0.548805
689.746	0.36702
693.121	0.265942
696.496	0.508377
699.871	0.160244
703.245	0.297764
706.62	0.925018
709.995	0.662796
713.37	0.525715
716.745	1.28737
720.12	0.763981
723.494	0.972286
726.869	1.12682
730.244	0.655777
733.619	1.08245
736.994	1.19501
740.368	1.41557
743.743	0.836926
747.118	0.972321
750.493	1.1549
753.868	0.965717
757.242	1.07361
760.617	1.33337
763.992	0.256058
767.367	0.807846
770.742	1.04449
774.117	0.491592
777.491	0.780979
780.866	0.996761
784.241	1.39968
787.616	0.923752
790.991	1.38282
794.365	1.28728
797.74	1.75101
801.115	1.90609
804.49	1.61074
807.865	2.20757
811.24	1.82972
814.614	2.37874
817.989	2.48543
821.364	3.5316
824.739	4.08426
828.114	5.21726
831.489	6.23404
834.863	6.44632
838.238	5.97023
841.613	6.4805
844.988	6.34388
848.362	5.85469
851.737	5.23397
855.112	3.99753
858.487	3.52851
861.862	3.4212
865.237	2.39233
868.611	1.57008
871.986	1.16412
875.361	0.671234
878.736	0.801708
882.111	1.221
885.486	1.48042
888.86	0.984688
892.235	0.304268
895.61	1.42646
898.985	1.91958
902.36	1.4012
905.734	1.23996
909.109	2.09983
912.484	3.73692
915.859	5.6262
919.234	5.95727
922.609	5.40175
925.983	5.36512
929.358	8.19835
932.733	12.2943
936.108	16.9715
939.483	21.5704
942.857	25.4337
946.232	29.1138
949.607	33.0531
952.982	39.8243
956.357	45.4688
959.731	53.0665
963.106	55.9321
966.481	56.9308
969.856	61.253
973.231	71.5897
976.606	84.1425
979.98	90.3627
983.355	94.0112
986.73	93.8391
990.105	92.2198
993.48	88.3062
996.855	82.0963
1000.23	75.042
1003.6	64.0265
1006.98	52.235
1010.35	41.9316
1013.73	33.6
1017.1	27.1983
1020.48	22.746
1023.85	17.9555
1027.23	14.3586
1030.6	10.4136
1033.98	6.83146
1037.35	4.52647
1040.73	3.28131
1044.1	2.11972
1047.48	1.25735
1050.85	0.393452
1054.23	0.232815
1057.6	0.40049
1060.98	0.936794
1064.35	1.14676
1067.73	0.451275
1071.1	0.524307
1074.47	0.49612
1077.85	0.110516
1081.22	0.071156
1084.6	0.745995
1087.97	1.15084
1091.35	1.85299
1094.72	2.17835
1098.1	2.35853
1101.47	2.91771
1104.85	3.43351
1108.22	3.67496
1111.6	4.65793
1114.97	4.73484
1118.35	3.7224
1121.72	3.31982
1125.1	3.89155
1128.47	3.23783
1131.85	3.76575
1135.22	4.10079
1138.6	3.58649
1141.97	4.28488
1145.35	4.28014
1148.72	4.64664
1152.1	3.90076
1155.47	3.86397
1158.85	3.12983
1162.22	2.07443
1165.6	1.28714
1168.97	1.4441
1172.35	0.457939
1175.72	0.736824
1179.1	0.11911
1182.47	0.094694
1185.84	0.86927
1189.22	0.112364
1192.59	0.565853
1195.97	0.324797
1199.34	0.979832
1202.72	0.049034
1206.09	0.374344
1209.47	0.66268
1212.84	0.635172
1216.22	0.79158
1219.59	0.725689
1222.97	0.015095
1226.34	0.754049
1229.72	0.712778
1233.09	0.548105
1236.47	0.63562
1239.84	0.711815
1243.22	0.923241
1246.59	0.833799
1249.97	0.971498
1253.34	0.843134
1256.71	0.826153
1260.09	0.376623
1263.46	0.414656
1266.84	0.37126
1270.21	0.163568
1273.59	0.755802
1276.96	0.361099
1280.34	0.403971
