Measurement: Raman, 780 nm, unoriented, Raman Data Processed
Mineral: Dondoellite
Rruff sample: R210003
Ideal chemistry: Ca_2_Fe^2+^(PO_4_)_2_2H_2_O
Locality: Grizzly Bear Creek, Stoneman Camp (Area B; Area 2), Rapid Creek, Dawson mining district, Yukon, Canada
Source: Donald Doell
Description: Spherical aggregates of radiating bladed straw-yellow or colorless crystals, on top of orange-brown siderite and white apatite. Type sample
Measured chemistry: Ca_1.99_(Fe_0.89_Mg_0.13_Mn_0.01_)(P_1.00_O_4_)_2_Â·2H_2_O
Raman shift (cm-1)	intensity
94.3317	0
97.7065	7.70239
101.081	80.321
104.456	116.329
107.831	38.7498
111.206	5.26782
114.581	59.3929
117.955	153.959
121.33	373.09
124.705	357.037
128.08	250.385
131.455	153.104
134.829	117.332
138.204	113.108
141.579	62.9744
144.954	23.7228
148.329	19.3883
151.704	18.9866
155.078	55.4051
158.453	123.897
161.828	234.192
165.203	275.647
168.578	183.512
171.952	142.396
175.327	138.619
178.702	174.526
182.077	208.316
185.452	233.312
188.827	267.74
192.201	367.483
195.576	383.571
198.951	307.176
202.326	266.999
205.701	252.155
209.076	258.184
212.45	257.088
215.825	267.274
219.2	308.714
222.575	363.329
225.95	379.316
229.324	353.386
232.699	245.776
236.074	172.222
239.449	136.296
242.824	140.573
246.198	143.237
249.573	101.053
252.948	50.6957
256.323	19.8303
259.698	8.02533
263.073	8.61121
266.447	4.38434
269.822	3.96667
273.197	1.60669
276.572	18.1284
279.947	47.108
283.322	91.3569
286.696	140.81
290.071	141.292
293.446	111.707
296.821	60.1183
300.196	28.9429
303.57	21.249
306.945	28.3737
310.32	67.8237
313.695	132.068
317.07	176.687
320.445	172.259
323.819	154.869
327.194	133.24
330.569	84.593
333.944	56.0983
337.319	27.5481
340.693	13.6631
344.068	3.60913
347.443	7.29602
350.818	3.42761
354.193	0.737244
357.567	1.18085
360.942	0.846741
364.317	8.02991
367.692	15.4484
371.067	9.93884
374.442	16.575
377.816	20.6462
381.191	38.8752
384.566	53.4728
387.941	70.0241
391.316	99.434
394.69	123.996
398.065	165.892
401.44	209.536
404.815	257.818
408.19	346.149
411.565	473.141
414.939	649.418
418.314	795.482
421.689	826.163
425.064	853.152
428.439	876.426
431.813	827.521
435.188	670.636
438.563	527.776
441.938	432.941
445.313	385.873
448.688	354.841
452.062	283.479
455.437	205.423
458.812	135.081
462.187	80.6043
465.562	62.8035
468.937	42.9001
472.311	27.9259
475.686	23.5163
479.061	17.0038
482.436	8.18787
485.81	0.026581
489.185	0.379425
492.56	1.853
495.935	1.4584
499.31	0.916473
502.685	0.870819
506.059	1.41409
509.434	0.531616
512.809	1.37256
516.184	2.142
519.559	1.38867
522.933	5.20477
526.308	3.14618
529.683	11.6128
533.058	18.4311
536.433	35.0015
539.808	49.9707
543.182	89.3525
546.557	146.644
549.932	204.676
553.307	220.5
556.682	185.704
560.057	129.217
563.431	86.7557
566.806	83.3124
570.181	100.251
573.556	164.485
576.931	218.924
580.305	221.484
583.68	251.283
587.055	305.907
590.43	396.481
593.805	495.014
597.18	709.948
600.554	919.197
603.929	580.867
607.304	276.161
610.679	145.491
614.054	83.1609
617.428	48.9268
620.803	27.9305
624.178	17.8108
627.553	11.5252
630.928	5.79849
634.303	2.26709
637.677	6.8793
641.052	11.8902
644.427	1.52191
647.802	1.22083
651.177	2.20477
654.552	1.70291
657.926	1.65292
661.301	2.77985
664.676	1.76819
668.051	1.73206
671.426	1.07962
674.8	0.904602
678.175	0.154633
681.55	5.37299
684.925	4.8002
688.3	2.67798
691.674	1.18689
695.049	3.12402
698.424	0.985291
701.799	9.08243
705.174	9.41495
708.548	5.62692
711.923	7.27838
715.298	7.53155
718.673	15.2093
722.048	13.7934
725.423	12.9382
728.797	14.6289
732.172	6.24982
735.547	4.72568
738.922	10.4481
742.297	9.14349
745.672	3.27469
749.046	8.73889
752.421	3.54584
755.796	8.16144
759.171	12.1621
762.546	11.3758
765.92	10.5403
769.295	15.7459
772.67	9.27823
776.045	7.61523
779.42	12.5359
782.795	8.33539
786.169	17.9678
789.544	8.01535
792.919	13.6273
796.294	16.5983
799.669	17.058
803.043	20.6081
806.418	21.5273
809.793	24.0849
813.168	24.9555
816.543	26.66
819.918	24.3594
823.292	23.8884
826.667	20.5377
830.042	16.6316
833.417	21.2446
836.792	18.3746
840.166	19.3746
843.541	10.8143
846.916	9.20245
850.291	12.0297
853.666	8.71756
857.04	5.56564
860.415	3.22052
863.79	1.35666
867.165	1.9328
870.54	0.601746
873.915	0.908478
877.289	6.83841
880.664	6.25339
884.039	2.94504
887.414	3.92856
890.789	4.68408
894.163	3.08328
897.538	13.9992
900.913	19.1813
904.288	45.63
907.663	65.2495
911.038	117.845
914.412	207.096
917.787	360.352
921.162	639.468
924.537	1173.14
927.912	1913.65
931.287	2118.97
934.661	1575.42
938.036	1392.4
941.411	2069.93
944.786	3150.16
948.161	2189.76
951.535	1118.63
954.91	712.101
958.285	552.472
961.66	449.24
965.035	363.433
968.409	239.992
971.784	129.034
975.159	78.301
978.534	73.058
981.909	65.1953
985.284	52.7281
988.658	34.6966
992.033	32.8127
995.408	30.3808
998.783	54.528
1002.16	87.5503
1005.53	141.625
1008.91	243.761
1012.28	407.904
1015.66	581.897
1019.03	587.026
1022.41	389.111
1025.78	221.322
1029.16	142.451
1032.53	112.209
1035.91	82.722
1039.28	42.2413
1042.66	12.7885
1046.03	1.7149
1049.4	6.15332
1052.78	9.60403
1056.15	3.86102
1059.53	0.497406
1062.9	3.0835
1066.28	1.55115
1069.65	5.54483
1073.03	8.12924
1076.4	24.8012
1079.78	61.7103
1083.15	91.4194
1086.53	175.421
1089.9	323.606
1093.28	594.163
1096.65	823.699
1100.03	609.18
1103.4	310.381
1106.78	175.665
1110.15	101.133
1113.53	63.2019
1116.9	37.638
1120.28	27.8777
1123.65	11.2509
1127.03	9.74631
1130.4	8.46271
1133.78	9.93381
1137.15	6.72
1140.53	8.21991
1143.9	9.7283
1147.28	1.95596
1150.65	6.25095
1154.03	2.92764
1157.4	3.60556
1160.77	0.520599
1164.15	1.04913
1167.52	1.60211
1170.9	3.54593
1174.27	4.47571
1177.65	2.13889
1181.02	7.80698
1184.4	5.40054
1187.77	12.9666
1191.15	12.8424
1194.52	13.9002
1197.9	10.0001
1201.27	14.0063
1204.65	9.12616
1208.02	7.69196
1211.4	12.8816
1214.77	8.01971
1218.15	8.83673
1221.52	13.8019
1224.9	6.64874
1228.27	4.53421
1231.64	3.37527
1235.02	0.40329
1238.39	4.9968
1241.77	6.8335
1245.14	5.66779
1248.52	3.62649
1251.89	2.44385
1255.27	6.64945
1258.64	7.67673
1262.02	9.89331
1265.39	8.16892
1268.77	4.49557
1272.14	7.39417
1275.52	6.13721
1278.89	3.72681
1282.27	0
