Measurement: Raman, 532 nm, unoriented, Raman Data Processed
Mineral: Dondoellite
Rruff sample: R140175
Ideal chemistry: Ca_2_Fe^2+^(PO_4_)_2_2H_2_O
Locality: Messel mine, Messel, Darmstadt, Hesse, Germany
Source: Rock Currier
Description: Pale greenish white hemispherical or sheaflike aggregates of lamellar crystals, associated with anapaite (R141081). The cell parameters do not match messelite, but may be a related phase, perhaps a polytype. Needs more work.
Measured chemistry: Ca_1.98_(Fe_0.88_Mg_0.09_)(P_1.01_O_4_)_2_Â·2H_2_O ; trace amount of Mn
Raman shift (cm-1)	intensity
141.17	0
144.544	13.1729
147.919	2.72949
151.294	4.58691
154.669	7.97803
158.044	33.438
161.418	195.86
164.793	393.231
168.168	179.32
171.543	37.6255
174.918	68.7754
178.293	174.541
181.667	404.954
185.042	414.11
188.417	248.671
191.792	140.012
195.167	132.947
198.542	97.833
201.916	91.9146
205.291	186.222
208.666	333.55
212.041	305.457
215.416	240.222
218.79	200.538
222.165	166.4
225.54	172.542
228.915	126.001
232.29	69.9194
235.665	1.26123
239.039	20.9653
242.414	23.4487
245.789	83.8144
249.164	49.1338
252.538	6.70166
255.913	22.147
259.288	48.4658
262.663	47.6875
266.038	57.3628
269.413	60.5391
272.787	101.035
276.162	128.859
279.537	204.868
282.912	253.119
286.287	338.25
289.661	325.855
293.036	247.725
296.411	157.759
299.786	80.4663
303.161	37.2754
306.536	47.6475
309.91	38.8599
313.285	74.4419
316.66	100.82
320.035	90.5049
323.41	69.8257
326.784	70.1611
330.159	29.7041
333.534	4.24463
336.909	9.97412
340.284	2.0918
343.659	2.57178
347.033	12.2549
350.408	7.38574
353.783	8.85352
357.158	5.31738
360.533	4.75586
363.908	7.55615
367.282	32.8594
370.657	27.4936
374.032	21.7905
377.407	21.4033
380.782	22.0024
384.156	63.833
387.531	121.389
390.906	139.669
394.281	202.421
397.656	278.319
401.031	356.344
404.405	494.894
407.78	673.096
411.155	979.237
414.53	1293.93
417.905	1350.73
421.279	1160.76
424.654	937.197
428.029	805.348
431.404	742.014
434.779	639.54
438.154	565.725
441.528	502.018
444.903	503.454
448.278	444.221
451.653	325.373
455.028	207.726
458.402	176.031
461.777	151.567
465.152	128.84
468.527	107.804
471.902	88.9775
475.276	27.1167
478.651	8.28174
482.026	6.22412
485.401	6.58447
488.776	17.9209
492.151	1.10059
495.525	23.5532
498.9	55.8833
502.275	29.2148
505.65	13.7881
509.025	18.5034
512.399	11.8257
515.774	27.085
519.149	26.0469
522.524	32.4805
525.899	75.0054
529.274	66.979
532.648	74.4351
536.023	92.1812
539.398	123.83
542.773	154.272
546.148	224.191
549.523	257.731
552.897	319.247
556.272	282.431
559.647	230.504
563.022	170.32
566.396	143.364
569.771	171.739
573.146	163.21
576.521	209.393
579.896	211.569
583.271	260.207
586.645	355.002
590.02	433.402
593.395	536.648
596.77	715.855
600.145	909.588
603.52	620.243
606.894	294.134
610.269	172.039
613.644	130.03
617.019	100.026
620.394	69.1865
623.769	55.8408
627.143	31.623
630.518	15.4521
633.893	8.87207
637.268	49.7236
640.643	29.6094
644.017	7.40137
647.392	13.2412
650.767	24.4336
654.142	16.6279
657.517	30.4717
660.891	27.8594
664.266	17.6523
667.641	55.4541
671.016	73.3164
674.391	43.9219
677.766	13.3262
681.14	16.7324
684.515	52.1709
687.89	39.2647
691.265	31.3975
694.64	13.1523
698.014	5.5625
701.389	2.16602
704.764	5.12598
708.139	13.8965
711.514	47.1504
714.889	25.9033
718.263	3.44336
721.638	19.4062
725.013	9.28516
728.388	0.291016
731.763	17.2988
735.138	33.1299
738.512	59.5889
741.887	18.5928
745.262	12.8799
748.637	17.6504
752.011	22.5625
755.386	42.3447
758.761	55.8428
762.136	49.5264
765.511	23.7471
768.886	11.2354
772.26	26.5566
775.635	27.6016
779.01	15.6338
782.385	41.4209
785.76	41.7168
789.135	32.4707
792.509	61.2031
795.884	65.9785
799.259	97.1436
802.634	72.6367
806.009	62.1787
809.383	64.4473
812.758	93.1816
816.133	54.6943
819.508	82.0283
822.883	69.501
826.258	51.9004
829.632	57.6973
833.007	101.89
836.382	56.1582
839.757	67.7197
843.132	59.4629
846.506	57.7812
849.881	18.0684
853.256	26.5498
856.631	20.4766
860.006	27.6309
863.38	0.060547
866.755	1.95312
870.13	22.6191
873.505	14.5684
876.88	21.7139
880.255	1.47559
883.629	9.7627
887.004	33.8164
890.379	30.5
893.754	16.9834
897.129	17.2598
900.504	50.8711
903.878	71.8838
907.253	113.098
910.628	160.269
914.003	241.016
917.378	401.045
920.752	668.852
924.127	1113.75
927.502	1707.38
930.877	1918.55
934.252	1517.1
937.626	1378.4
941.001	1933.37
944.376	2852.2
947.751	2067.38
951.126	1164.98
954.501	849.71
957.875	697.124
961.25	668.042
964.625	522.001
968	332.476
971.375	154.483
974.75	94.6894
978.124	83.7822
981.499	66.1856
984.874	15.2012
988.249	17.5459
991.624	11.9727
994.998	35.873
998.373	36.8916
1001.75	37.3535
1005.12	53.4238
1008.5	90.0029
1011.87	134.537
1015.25	172.432
1018.62	180.086
1022	120.275
1025.37	99.5967
1028.75	61.3486
1032.12	102.853
1035.5	125.879
1038.87	77.6289
1042.25	43.706
1045.62	13.3945
1048.99	29.6943
1052.37	5.34863
1055.74	28.9541
1059.12	34.9736
1062.49	37.0478
1065.87	28.2236
1069.24	54.7822
1072.62	68.5381
1075.99	72.5019
1079.37	96.1035
1082.74	129.253
1086.12	199.43
1089.49	288.426
1092.87	490.467
1096.24	806.754
1099.62	923.842
1102.99	623.871
1106.37	280.644
1109.74	150.815
1113.12	11.248
1116.49	57.8115
1119.87	72.5186
1123.24	42.7568
1126.62	5.87207
1129.99	11.2666
1133.37	5.62695
1136.74	55.0293
1140.12	64.2197
1143.49	46.0117
1146.87	51.7461
1150.24	28.834
1153.62	50.0332
1156.99	21.2832
1160.37	71.4941
1163.74	54.1133
1167.11	15.6045
1170.49	38.1611
1173.86	61.168
1177.24	79.6143
1180.61	55.4443
1183.99	40.6904
1187.36	60.8408
1190.74	95.0205
1194.11	102.341
1197.49	66.2998
1200.86	77.876
1204.24	64.3711
1207.61	31.5576
1210.99	28.1602
1214.36	59.459
1217.74	73.3223
1221.11	52.5332
1224.49	4.99316
1227.86	2.24707
1231.24	5.33398
1234.61	0.4375
1237.98	23.0713
1241.36	35.0078
1244.73	101.61
1248.11	83.1894
1251.48	92.9551
1254.86	67.3769
1258.23	86.3838
1261.61	75.4824
1264.98	61.9062
1268.36	41.252
1271.73	32.9043
1275.11	35.6475
1278.48	30.6582
1281.86	45.6826
1285.23	45.3535
1288.61	31.835
1291.98	9.64648
1295.36	6.65723
1298.73	16.293
