Measurement: Raman, 532 nm, unoriented, Raman Data Processed
Mineral: Dondoellite
Rruff sample: R210003
Ideal chemistry: Ca_2_Fe^2+^(PO_4_)_2_2H_2_O
Locality: Grizzly Bear Creek, Stoneman Camp (Area B; Area 2), Rapid Creek, Dawson mining district, Yukon, Canada
Source: Donald Doell
Description: Spherical aggregates of radiating bladed straw-yellow or colorless crystals, on top of orange-brown siderite and white apatite. Type sample
Measured chemistry: Ca_1.99_(Fe_0.89_Mg_0.13_Mn_0.01_)(P_1.00_O_4_)_2_Â·2H_2_O
Raman shift (cm-1)	intensity
88.1367	0
91.5115	7.24017
94.8863	4.0228
98.2612	1.14203
101.636	15.847
105.011	10.8897
108.386	2.23575
111.76	1.04926
115.135	31.4548
118.51	54.5827
121.885	112.397
125.26	147.14
128.635	73.9091
132.009	38.5742
135.384	29.179
138.759	36.2744
142.134	35.5517
145.509	18.0288
148.883	8.08359
152.258	8.82602
155.633	16.6905
159.008	25.42
162.383	67.3352
165.757	139.021
169.132	86.9103
172.507	25.7336
175.882	3.26395
179.257	6.17697
182.632	20.8492
186.006	35.2847
189.381	37.1945
192.756	54.6039
196.131	87.3
199.506	73.581
202.881	58.7492
206.255	79.915
209.63	127.71
213.005	152.98
216.38	144.943
219.755	156.135
223.129	175.532
226.504	207.954
229.879	202.482
233.254	153.742
236.629	100.882
240.004	77.3864
243.378	79.2828
246.753	104.485
250.128	84.5707
253.503	44.6258
256.878	19.3395
260.252	1.24051
263.627	5.08658
267.002	4.5426
270.377	0.930389
273.752	12.4914
277.127	26.8646
280.501	45.6498
283.876	80.222
287.251	111.648
290.626	113.795
294.001	97.8564
297.375	65.4381
300.75	35.6978
304.125	23.45
307.5	22.9157
310.875	36.0654
314.25	59.191
317.624	93.9454
320.999	113.694
324.374	121.805
327.749	121.871
331.124	91.0811
334.498	61.4348
337.873	35.0989
341.248	21.0085
344.623	10.1128
347.998	1.83875
351.373	0.412537
354.747	2.1683
358.122	0.075684
361.497	0.731201
364.872	3.93249
368.247	6.68817
371.621	3.27386
374.996	8.55298
378.371	11.3274
381.746	19.2278
385.121	25.8126
388.495	37.1632
391.87	48.6996
395.245	65.7766
398.62	84.079
401.995	113.282
405.37	144.278
408.744	180.378
412.119	254.348
415.494	345.199
418.869	410.954
422.244	426.114
425.618	398.107
428.993	384.431
432.368	348.448
435.743	298.245
439.118	236.901
442.493	192.076
445.867	169.962
449.242	149.251
452.617	120.904
455.992	90.2779
459.367	60.8985
462.741	43.391
466.116	38.0605
469.491	17.1955
472.866	13.5399
476.241	11.8426
479.615	5.97537
482.99	2.21411
486.365	3.0582
489.74	1.18497
493.115	3.56979
496.49	0.081635
499.864	4.46173
503.239	4.20679
506.614	2.0972
509.989	2.10272
513.364	3.33835
516.739	0.931427
520.113	0.285614
523.488	6.0766
526.863	6.3811
530.238	12.7554
533.613	19.3723
536.987	25.5124
540.362	36.5725
543.737	58.3472
547.112	83.178
550.487	114.925
553.861	129.972
557.236	125.93
560.611	103.71
563.986	84.1488
567.361	88.1244
570.736	113.628
574.11	162.007
577.485	221.631
580.86	238.138
584.235	256.835
587.61	305.383
590.985	360.65
594.359	409.442
597.734	463.49
601.109	607.511
604.484	481.457
607.859	242.418
611.233	119.437
614.608	71.4883
617.983	42.5032
621.358	26.4941
624.733	16.8446
628.107	13.6527
631.482	9.33823
634.857	6.09521
638.232	5.85172
641.607	2.87747
644.982	0.01593
648.356	0.067505
651.731	0.28067
655.106	5.79141
658.481	0.183014
661.856	1.76175
665.231	4.25629
668.605	0.077087
671.98	5.78403
675.355	4.28735
678.73	4.88934
682.105	0.819946
685.479	5.50784
688.854	2.2146
692.229	2.92764
695.604	1.07788
698.979	0.237732
702.354	1.69836
705.728	6.44754
709.103	6.48639
712.478	9.1944
715.853	6.65512
719.227	4.7836
722.602	13.0689
725.977	8.78665
729.352	9.39761
732.727	9.17844
736.102	5.22073
739.476	2.24796
742.851	7.62418
746.226	5.2945
749.601	9.95874
752.976	2.68744
756.351	6.65448
759.725	8.94385
763.1	9.85666
766.475	8.14981
769.85	11.1597
773.225	8.87213
776.599	7.55325
779.974	8.75919
783.349	11.5629
786.724	13.2283
790.099	12.91
793.473	16.5974
796.848	12.8843
800.223	13.587
803.598	15.757
806.973	15.4414
810.348	15.1949
813.722	24.7751
817.097	21.9596
820.472	23.6045
823.847	23.6193
827.222	22.3078
830.597	21.1306
833.971	23.2218
837.346	26.5563
840.721	18.0381
844.096	15.7712
847.471	13.8606
850.846	7.37201
854.22	11.0516
857.595	5.44479
860.97	1.51004
864.345	1.16064
867.72	1.35312
871.094	0.709351
874.469	7.20078
877.844	2.69458
881.219	3.88138
884.594	5.03769
887.968	4.72833
891.343	3.78119
894.718	1.26666
898.093	9.80127
901.468	22.3592
904.842	35.4469
908.217	61.6698
911.592	106.856
914.967	181.743
918.342	326.972
921.717	596.263
925.091	1054.98
928.466	1776.64
931.841	2309.18
935.216	1892.35
938.591	1502.01
941.966	1896.14
945.34	3132.5
948.715	2917.9
952.09	1489.31
955.465	905.031
958.84	674.496
962.214	566.658
965.589	465.368
968.964	334.126
972.339	184.776
975.714	107.095
979.088	88.6423
982.463	79.2959
985.838	63.8549
989.213	42.1578
992.588	39.8343
995.963	47.9992
999.337	70.3235
1002.71	107.825
1006.09	174.713
1009.46	300.439
1012.84	475.323
1016.21	694.362
1019.59	796.382
1022.96	592.924
1026.34	347.916
1029.71	194.98
1033.09	159.048
1036.46	114.074
1039.84	66.3944
1043.21	29.4537
1046.59	3.8999
1049.96	5.57544
1053.33	6.89807
1056.71	9.53479
1060.08	2.69092
1063.46	5.44763
1066.83	1.67175
1070.21	6.84485
1073.58	16.2003
1076.96	25.7639
1080.33	41.4571
1083.71	78.5478
1087.08	132.314
1090.46	236.014
1093.83	440.161
1097.21	714.147
1100.58	683.657
1103.96	384.053
1107.33	194.559
1110.71	116.235
1114.08	75.4226
1117.46	61.2872
1120.83	41.2756
1124.21	24.083
1127.58	12.9633
1130.95	8.86963
1134.33	12.1672
1137.7	9.62109
1141.08	5.35571
1144.45	9.11298
1147.83	1.16821
1151.2	5.24561
1154.58	8.4154
1157.95	3.92755
1161.33	8.59027
1164.7	1.96094
1168.08	2.54224
1171.45	0.623108
1174.83	7.03778
1178.2	7.11505
1181.58	6.79242
1184.95	9.24725
1188.33	11.946
1191.7	11.2454
1195.08	16.5286
1198.45	13.8688
1201.83	9.72571
1205.2	9.36529
1208.58	6.73456
1211.95	8.82373
1215.33	11.9111
1218.7	6.10248
1222.08	6.32794
1225.45	5.98193
1228.83	2.22705
1232.2	1.25983
1235.58	1.6084
1238.95	2.27844
1242.32	6.57764
1245.7	2.77881
1249.07	0.408752
1252.45	5.95319
1255.82	6.61731
1259.2	8.77838
1262.57	1.69037
1265.95	4.40924
1269.32	3.88373
1272.7	3.2345
1276.07	8.49005
1279.45	1.35626
1282.82	6.78101
1286.2	7.64111
1289.57	4.08948
1292.95	6.16663
1296.32	5.15137
1299.7	2.10541
