Measurement: Raman, 532 nm, unoriented, Raman Data Processed
Mineral: Edwindavisite
Rruff sample: R230005
Ideal chemistry: Cu^2+^((C_2_)^6+^O_4_)(N^3-^H_3_)
Locality: 125' Level, Rowley mine, Maricopa County, Arizona, USA
Source: Joe Marty
Description: Radiating clusters of bladed or prismatic grass-green crystals, associated with blue ammineite. Type sample
Raman shift (cm-1)	intensity
90.9243	0
94.2991	84.3474
97.6739	0.64679
101.049	0.867676
104.424	102.793
107.798	260.754
111.173	212.037
114.548	104.324
117.923	45.6429
121.298	32.7788
124.672	17.0308
128.047	0.771729
131.422	5.6925
134.797	9.6831
138.172	17.7792
141.547	20.5743
144.921	23.2598
148.296	45.6309
151.671	98.055
155.046	152.25
158.421	184.06
161.795	220.274
165.17	247.726
168.545	254.998
171.92	230.541
175.295	204.654
178.669	165.513
182.044	152.516
185.419	152.431
188.794	122.879
192.169	71.5643
195.543	34.7034
198.918	15.6502
202.293	0.901794
205.668	2.98981
209.043	3.47504
212.418	13.0507
215.792	26.2051
219.167	37.9456
222.542	53.3314
225.917	79.9706
229.292	109.338
232.667	166.325
236.041	262.278
239.416	340.178
242.791	326.773
246.166	243.012
249.541	174.498
252.915	117.42
256.29	68.7118
259.665	42.0214
263.04	23.3334
266.415	16.5889
269.789	11.4962
273.164	0.049377
276.539	3.86871
279.914	1.32617
283.289	0.08728
286.664	1.64636
290.038	0.538757
293.413	2.23517
296.788	2.61871
300.163	1.06036
303.538	0.043701
306.913	6.04993
310.287	12.217
313.662	22.595
317.037	26.3838
320.412	35.1227
323.787	35.964
327.161	39.4313
330.536	28.4977
333.911	22.0206
337.286	18.5045
340.661	10.2107
344.035	8.16882
347.41	7.21436
350.785	4.93347
354.16	2.89966
357.535	2.27539
360.909	7.52161
364.284	5.12457
367.659	7.39563
371.034	10.2261
374.409	9.39185
377.784	3.72296
381.158	9.00476
384.533	7.63769
387.908	5.90405
391.283	12.2266
394.658	7.19501
398.033	7.4707
401.407	1.53625
404.782	4.94318
408.157	0.523315
411.532	5.98547
414.907	7.5321
418.281	5.74841
421.656	2.46063
425.031	0.303528
428.406	0.961975
431.781	1.43054
435.156	1.81433
438.53	2.93805
441.905	3.00134
445.28	3.69165
448.655	3.9455
452.029	13.6312
455.404	14.3474
458.779	24.7732
462.154	28.582
465.529	37.8789
468.904	18.542
472.278	16.3981
475.653	4.06061
479.028	14.7791
482.403	15.8207
485.778	19.2316
489.152	22.5684
492.527	40.9117
495.902	62.2294
499.277	93.9142
502.652	156.481
506.027	268.02
509.401	455.344
512.776	749.06
516.151	874.158
519.526	540.55
522.901	280.621
526.275	143.808
529.65	79.9385
533.025	53.15
536.4	54.7806
539.775	65.9456
543.15	72.7281
546.524	60.6308
549.899	26.6007
553.274	5.362
556.649	1.91992
560.024	9.5282
563.399	1.79016
566.773	4.89545
570.148	15.8492
573.523	23.7048
576.898	32.9291
580.273	35.0312
583.647	28.9392
587.022	18.3885
590.397	16.3875
593.772	12.5487
597.147	11.0651
600.521	10.8912
603.896	12.9279
607.271	12.7624
610.646	9.91516
614.021	9.66974
617.395	2.05493
620.77	3.17957
624.145	0.94104
627.52	7.98975
630.895	0.945862
634.27	0.653931
637.644	3.85248
641.019	3.05292
644.394	4.224
647.769	1.35413
651.144	2.22681
654.519	0.322388
657.893	13.288
661.268	10.7177
664.643	5.35199
668.018	8.8479
671.393	15.9846
674.767	15.6105
678.142	17.7257
681.517	12.3875
684.892	12.8516
688.267	15.04
691.641	14.381
695.016	9.54456
698.391	10.0073
701.766	15.4138
705.141	6.75287
708.516	8.87299
711.89	7.17859
715.265	7.03101
718.64	8.87848
722.015	16.5006
725.39	8.51379
728.764	4.5686
732.139	16.6371
735.514	10.1392
738.889	4.79645
742.264	13.4318
745.639	9.46655
749.013	10.782
752.388	10.3117
755.763	6.8031
759.138	8.65796
762.513	8.04401
765.888	0.67865
769.262	8.9184
772.637	6.8324
776.012	4.61273
779.387	1.1004
782.761	0.3974
786.136	2.80255
789.511	3.95123
792.886	6.72199
796.261	4.43695
799.636	3.9585
803.01	1.68738
806.385	4.05884
809.76	8.65881
813.135	4.11066
816.51	5.14929
819.885	3.24164
823.259	2.60242
826.634	2.53223
830.009	8.91046
833.384	5.87653
836.759	8.76257
840.133	13.0179
843.508	19.6153
846.883	50.231
850.258	27.3583
853.633	25.1597
857.007	20.3633
860.382	2.99921
863.757	4.24805
867.132	3.88025
870.507	7.09241
873.881	6.21588
877.256	2.22565
880.631	8.3971
884.006	6.93567
887.381	8.57245
890.756	16.5947
894.13	18.9445
897.505	37.7338
900.88	71.4758
904.255	149.025
907.63	164.598
911.005	55.0598
914.379	37.0794
917.754	35.723
921.129	26.9836
924.504	33.4777
927.879	19.0613
931.253	4.08606
934.628	2.59485
938.003	15.739
941.378	1.87506
944.753	2.75867
948.128	4.36554
951.502	1.9173
954.877	1.67255
958.252	2.79462
961.627	9.27515
965.002	12.4512
968.376	10.7883
971.751	9.21906
975.126	8.93591
978.501	10.1573
981.876	9.21002
985.25	11.7429
988.625	9.48212
992	12.9962
995.375	6.14429
998.75	9.6004
1002.12	8.7442
1005.5	6.48444
1008.87	12.7342
1012.25	15.3025
1015.62	13.203
1019	4.3678
1022.37	7.89905
1025.75	3.57483
1029.12	7.26941
1032.5	10.2324
1035.87	5.51233
1039.25	3.77087
1042.62	9.29163
1046	11.4833
1049.37	11.3912
1052.75	2.16699
1056.12	9.43726
1059.5	13.2599
1062.87	15.3492
1066.25	6.69702
1069.62	6.72876
1073	3.8457
1076.37	5.37756
1079.74	1.2655
1083.12	1.94934
1086.49	2.00073
1089.87	2.65735
1093.24	0.500488
1096.62	6.77087
1099.99	11.1372
1103.37	2.93799
1106.74	2.60413
1110.12	8.50635
1113.49	8.17835
1116.87	5.51428
1120.24	4.91064
1123.62	3.07214
1126.99	2.77393
1130.37	9.5238
1133.74	8.88257
1137.12	8.6731
1140.49	10.7162
1143.87	0.873169
1147.24	2.9281
1150.62	3.0542
1153.99	0.078857
1157.37	1.81665
1160.74	5.79956
1164.12	9.54663
1167.49	7.00317
1170.87	2.54358
1174.24	2.0332
1177.62	9.50207
1180.99	13.1691
1184.37	8.96021
1187.74	3.6178
1191.11	7.70642
1194.49	6.57031
1197.86	9.22595
1201.24	8.07129
1204.61	3.52612
1207.99	9.26379
1211.36	13.0864
1214.74	4.61548
1218.11	3.20337
1221.49	12.4551
1224.86	7.01428
1228.24	4.11511
1231.61	2.84277
1234.99	2.42957
1238.36	1.67004
1241.74	6.01929
1245.11	6.26123
1248.49	9.08179
1251.86	14.8611
1255.24	11.7494
1258.61	24.2203
1261.98	34.6073
1265.36	38.8175
1268.73	36.5941
1272.11	8.56836
1275.48	6.68665
1278.86	5.98059
1282.23	21.4847
1285.61	12.9545
1288.98	2.15369
1292.36	3.42432
1295.73	4.5647
1299.11	0.374756
