Measurement: Raman, 780 nm, unoriented, Raman Data Processed
Mineral: Ehrleite
Rruff sample: R180029
Ideal chemistry: Ca_2_Zn^2+^Be(PO_4_)_2_(PO_3_OH)4H_2_O
Locality: Tip Top mine, Custer District, Custer Co., South Dakota, USA
Source: Tom Loomis
Description: Colorless thick tabular crystals, twinned by a 2-fold parallel to (001)
Raman shift (cm-1)	intensity
93.3674	0
96.7422	5.64526
100.117	14.3569
103.492	102.258
106.867	157.904
110.242	424.832
113.616	283.53
116.991	84.0065
120.366	10.3461
123.741	3.72208
127.116	3.48467
130.49	25.7733
133.865	138.66
137.24	248.29
140.615	245.524
143.99	125.668
147.364	27.0643
150.739	41.2155
154.114	79.8875
157.489	133.714
160.864	117.895
164.239	89.3471
167.613	31.6307
170.988	18.5365
174.363	37.2073
177.738	53.2873
181.113	47.9867
184.488	34.3108
187.862	2.66695
191.237	2.12604
194.612	25.728
197.987	38.0173
201.362	25.348
204.736	5.06586
208.111	2.94349
211.486	0.709091
214.861	13.5612
218.236	48.0745
221.611	75.2921
224.985	71.3933
228.36	89.4629
231.735	79.0793
235.11	47.5761
238.485	27.978
241.859	25.0513
245.234	22.4612
248.609	18.1204
251.984	24.0544
255.359	29.6185
258.733	17.209
262.108	5.01193
265.483	2.0097
268.858	2.99715
272.233	0.525513
275.608	3.03227
278.982	5.49933
282.357	5.85554
285.732	24.5823
289.107	36.458
292.482	36.7526
295.856	27.6233
299.231	14.4349
302.606	10.7993
305.981	13.4873
309.356	20.2847
312.731	37.0931
316.105	42.1208
319.48	31.8244
322.855	24.5764
326.23	20.426
329.605	11.4045
332.979	8.77357
336.354	6.04913
339.729	5.91678
343.104	9.07748
346.479	20.1031
349.854	42.6215
353.228	72.9509
356.603	119.937
359.978	159.09
363.353	160.755
366.728	143.665
370.103	121.037
373.477	92.976
376.852	60.8439
380.227	44.3804
383.602	31.4415
386.977	24.4974
390.351	21.8085
393.726	20.5265
397.101	19.994
400.476	25.4043
403.851	34.2437
407.226	48.3903
410.6	53.8165
413.975	54.4866
417.35	43.5568
420.725	26.3717
424.1	11.4092
427.474	1.6115
430.849	3.18463
434.224	4.4686
437.599	1.55725
440.974	4.69464
444.349	17.3431
447.723	36.0119
451.098	57.1927
454.473	66.7926
457.848	59.6491
461.223	46.1913
464.597	34.2059
467.972	22.0271
471.347	11.7255
474.722	7.16719
478.097	8.313
481.471	15.0257
484.846	28.9342
488.221	51.9053
491.596	38.5816
494.971	14.8713
498.346	2.53513
501.72	0.648796
505.095	0.222534
508.47	1.45418
511.845	1.18319
515.22	3.11573
518.595	4.03238
521.969	4.39721
525.344	4.34857
528.719	8.42357
532.094	13.7348
535.469	22.2987
538.843	28.2497
542.218	41.4779
545.593	54.0932
548.968	63.742
552.343	82.6802
555.717	93.4639
559.092	104.127
562.467	141.981
565.842	219.116
569.217	199.046
572.592	91.2698
575.966	43.6716
579.341	25.5148
582.716	24.3753
586.091	28.8571
589.466	38.1341
592.841	54.4815
596.215	59.3561
599.59	64.6514
602.965	63.0765
606.34	54.3592
609.715	45.2362
613.089	31.7455
616.464	20.0423
619.839	15.9556
623.214	17.4201
626.589	27.0416
629.963	40.5422
633.338	37.7715
636.713	20.7596
640.088	8.40583
643.463	3.99874
646.838	0.326454
650.212	0.658775
653.587	0.002586
656.962	1.52795
660.337	1.53811
663.712	0.700623
667.087	0.83466
670.461	0.143005
673.836	0.028152
677.211	1.0194
680.586	1.0305
683.961	3.09669
687.335	2.21048
690.71	1.1306
694.085	1.9348
697.46	2.07571
700.835	2.64043
704.21	1.31267
707.584	1.17615
710.959	0.709106
714.334	1.54624
717.709	1.81737
721.084	1.33379
724.458	1.45055
727.833	1.00688
731.208	1.35613
734.583	2.684
737.958	2.93501
741.332	3.12845
744.707	3.87312
748.082	5.07437
751.457	4.59805
754.832	5.09564
758.207	5.57556
761.581	5.74465
764.956	3.3051
768.331	1.20557
771.706	1.71915
775.081	1.36078
778.455	2.44828
781.83	1.35284
785.205	1.84026
788.58	0.890148
791.955	2.50104
795.33	1.65309
798.704	5.92343
802.079	5.42465
805.454	4.08541
808.829	3.79984
812.204	2.54922
815.578	3.13831
818.953	2.21663
822.328	0.427622
825.703	0.817751
829.078	0.471048
832.453	0.751444
835.827	0.289654
839.202	0.643259
842.577	0.364904
845.952	1.99868
849.327	4.27487
852.702	9.39438
856.076	12.1098
859.451	20.1095
862.826	30.6408
866.201	54.722
869.576	94.3526
872.95	139.027
876.325	127.574
879.7	83.1203
883.075	45.8936
886.45	24.9633
889.824	17.1041
893.199	7.79901
896.574	6.55922
899.949	3.87225
903.324	3.12508
906.698	1.03336
910.073	0.9135
913.448	1.93042
916.823	0.316341
920.198	0.167633
923.573	0.522518
926.947	0.572823
930.322	0.168278
933.697	0.887939
937.072	0.120129
940.447	1.64552
943.822	1.98878
947.196	6.78313
950.571	9.39714
953.946	12.6341
957.321	17.7014
960.696	28.398
964.07	44.0702
967.445	71.9086
970.82	123.449
974.195	181.381
977.57	239.703
980.945	395.891
984.319	708.768
987.694	786.901
991.069	458.486
994.444	227.674
997.819	120.559
1001.19	66.8158
1004.57	34.3835
1007.94	15.7012
1011.32	8.80771
1014.69	5.55965
1018.07	4.77895
1021.44	5.99481
1024.82	9.56185
1028.19	21.1631
1031.57	52.4056
1034.94	108.534
1038.32	102.155
1041.69	45.7021
1045.07	19.1514
1048.44	6.68802
1051.82	0.966942
1055.19	0.533253
1058.57	5.36605
1061.94	17.0437
1065.32	36.1809
1068.69	65.4514
1072.07	97.5802
1075.44	64.5171
1078.81	26.0215
1082.19	8.90967
1085.56	0.67173
1088.94	0.606506
1092.31	5.34702
1095.69	12.4839
1099.06	14.5031
1102.44	4.66676
1105.81	0.981937
1109.19	0.807842
1112.56	1.48811
1115.94	2.55757
1119.31	10.2419
1122.69	22.4095
1126.06	39.255
1129.44	65.4097
1132.81	65.0454
1136.19	43.9673
1139.56	36.9648
1142.94	43.0415
1146.31	65.3529
1149.68	84.6285
1153.06	75.3661
1156.43	46.166
1159.81	25.274
1163.18	15.7199
1166.56	9.34786
1169.93	3.77184
1173.31	2.55575
1176.68	4.10044
1180.06	1.58715
1183.43	0.800449
1186.81	0.931421
1190.18	0.735012
1193.56	0.356985
1196.93	1.04863
1200.31	0.410069
1203.68	1.40159
1207.06	1.66463
1210.43	2.7918
1213.81	2.68431
1217.18	0.93705
1220.56	3.77797
1223.93	3.15135
1227.31	3.29511
1230.68	4.59211
1234.06	5.69609
1237.43	5.80317
1240.81	2.37923
1244.18	2.69598
1247.56	2.34643
1250.93	2.97422
1254.31	5.80939
1257.68	0.953205
1261.05	1.52149
1264.43	0.082352
1267.8	1.23894
1271.18	0.258617
1274.55	1.27141
1277.93	1.1696
1281.3	0.410109
