Measurement: Raman, 532 nm, unoriented, Raman Data Processed
Mineral: Ehrleite
Rruff sample: R180029
Ideal chemistry: Ca_2_Zn^2+^Be(PO_4_)_2_(PO_3_OH)4H_2_O
Locality: Tip Top mine, Custer District, Custer Co., South Dakota, USA
Source: Tom Loomis
Description: Colorless thick tabular crystals, twinned by a 2-fold parallel to (001)
Raman shift (cm-1)	intensity
88.1367	0
91.5115	1.86505
94.8863	0.468678
98.2612	1.08227
101.636	5.57747
105.011	24.4948
108.386	48.0726
111.76	124.108
115.135	115.082
118.51	49.1068
121.885	24.0819
125.26	20.4495
128.635	26.4246
132.009	37.9007
135.384	88.6886
138.759	163.787
142.134	155.073
145.509	98.3866
148.883	45.115
152.258	59.1419
155.633	69.4893
159.008	78.8467
162.383	77.0016
165.757	81.1499
169.132	33.1351
172.507	17.9813
175.882	28.3301
179.257	38.1053
182.632	54.5129
186.006	58.5177
189.381	19.0623
192.756	5.93159
196.131	6.31319
199.506	7.36032
202.881	1.81921
206.255	1.7658
209.63	0.828064
213.005	2.56189
216.38	5.88041
219.755	17.77
223.129	28.7389
226.504	15.0486
229.879	17.1475
233.254	13.3541
236.629	7.16732
240.004	0.399918
243.378	1.82927
246.753	1.89454
250.128	0.795467
253.503	3.57168
256.878	5.13456
260.252	0.728958
263.627	2.86079
267.002	4.44698
270.377	1.96594
273.752	3.74377
277.127	3.87871
280.501	6.72781
283.876	14.6201
287.251	33.3286
290.626	48.3456
294.001	47.6324
297.375	42.7431
300.75	27.0121
304.125	20.138
307.5	18.995
310.875	22.7272
314.25	32.1654
317.624	36.0605
320.999	24.4408
324.374	18.0017
327.749	9.93906
331.124	11.2086
334.498	13.5893
337.873	22.5233
341.248	22.3532
344.623	30.0774
347.998	42.8907
351.373	65.9555
354.747	102.001
358.122	150.981
361.497	187.018
364.872	165.234
368.247	120.492
371.621	85.8328
374.996	54.6742
378.371	35.9453
381.746	25.2407
385.121	18.6979
388.495	11.3794
391.87	10.3608
395.245	9.59744
398.62	10.1411
401.995	11.5707
405.37	12.592
408.744	16.3817
412.119	20.3699
415.494	18.0849
418.869	15.7653
422.244	7.10477
425.618	2.29089
428.993	1.30037
432.368	3.1161
435.743	2.18492
439.118	1.45351
442.493	3.76089
445.867	9.47439
449.242	17.8256
452.617	24.8337
455.992	27.3292
459.367	27.0532
462.741	21.7307
466.116	19.9472
469.491	12.1115
472.866	6.56008
476.241	3.5267
479.615	3.68963
482.99	4.59568
486.365	7.40648
489.74	9.4518
493.115	6.80115
496.49	1.06403
499.864	3.79916
503.239	0.356201
506.614	0.118271
509.989	2.66966
513.364	3.4994
516.739	3.88277
520.113	7.04284
523.488	9.40588
526.863	10.0944
530.238	15.8222
533.613	17.2307
536.987	22.7352
540.362	26.5378
543.737	26.117
547.112	25.7484
550.487	29.1169
553.861	45.2728
557.236	64.2064
560.611	92.6721
563.986	147.653
567.361	232.89
570.736	216.713
574.11	92.4642
577.485	44.9652
580.86	27.2722
584.235	25.4711
587.61	28.8259
590.985	43.7103
594.359	65.1678
597.734	78.942
601.109	83.651
604.484	86.4733
607.859	79.3646
611.233	63.3444
614.608	43.6271
617.983	28.7162
621.358	16.9108
624.733	14.2204
628.107	12.9546
631.482	12.9094
634.857	12.3477
638.232	5.72037
641.607	2.77081
644.982	0.078575
648.356	0.785355
651.731	1.79787
655.106	0.752991
658.481	1.48009
661.856	1.52075
665.231	1.19977
668.605	1.00008
671.98	1.22043
675.355	0.623089
678.73	2.99265
682.105	2.32704
685.479	3.38753
688.854	3.97152
692.229	2.33305
695.604	4.21527
698.979	2.67173
702.354	2.18739
705.728	2.74659
709.103	2.63035
712.478	1.62016
715.853	3.07646
719.227	0.495838
722.602	1.64992
725.977	0.770935
729.352	1.1316
732.727	0.185951
736.102	2.7574
739.476	1.6143
742.851	1.34632
746.226	2.8628
749.601	2.86858
752.976	4.6177
756.351	3.7696
759.725	4.81375
763.1	2.89668
766.475	3.43082
769.85	1.13659
773.225	1.43552
776.599	1.58286
779.974	2.06707
783.349	2.80234
786.724	2.56023
790.099	3.93788
793.473	4.22401
796.848	7.31998
800.223	6.73204
803.598	6.19126
806.973	7.75966
810.348	5.97846
813.722	3.38493
817.097	2.81708
820.472	0.419495
823.847	2.64808
827.222	1.13654
830.597	0.31192
833.971	0.086136
837.346	0.088074
840.721	0.269356
844.096	1.33686
847.471	1.71883
850.846	1.09037
854.22	2.40327
857.595	4.48392
860.97	12.7091
864.345	22.7023
867.72	32.6913
871.094	63.3785
874.469	89.0772
877.844	83.9058
881.219	54.9962
884.594	30.2691
887.968	17.1323
891.343	12.1993
894.718	6.42841
898.093	4.24883
901.468	4.04411
904.842	2.18381
908.217	2.18787
911.592	0.074387
914.967	2.65343
918.342	0.176575
921.717	1.33395
925.091	0.446571
928.466	0.972656
931.841	2.95732
935.216	0.36721
938.591	1.75222
941.966	1.62197
945.34	3.10887
948.715	6.61968
952.09	12.9836
955.465	18.412
958.84	26.6043
962.214	39.5518
965.589	60.945
968.964	100.178
972.339	165.341
975.714	247.487
979.088	324.8
982.463	531.221
985.838	902.995
989.213	934.798
992.588	523.939
995.963	269.583
999.337	139.326
1002.71	72.5721
1006.09	38.1607
1009.46	22.5602
1012.84	11.3433
1016.21	5.05852
1019.59	3.52669
1022.96	5.13605
1026.34	10.0267
1029.71	23.7802
1033.09	60.1827
1036.46	122.586
1039.84	104.494
1043.21	40.1799
1046.59	14.4222
1049.96	4.97959
1053.33	2.25887
1056.71	3.60677
1060.08	11.0305
1063.46	24.9103
1066.83	45.1435
1070.21	76.7174
1073.58	110.494
1076.96	74.2823
1080.33	31.5866
1083.71	13.7828
1087.08	4.40837
1090.46	5.41143
1093.83	11.4417
1097.21	23.1245
1100.58	24.4178
1103.96	8.49907
1107.33	1.41568
1110.71	1.57384
1114.08	0.49704
1117.46	1.65964
1120.83	3.68298
1124.21	9.67957
1127.58	13.081
1130.95	23.0003
1134.33	27.3103
1137.7	26.6265
1141.08	36.3978
1144.45	56.1919
1147.83	87.2355
1151.2	121.518
1154.58	106.496
1157.95	68.7378
1161.33	40.9168
1164.7	24.8092
1168.08	16.0359
1171.45	9.74445
1174.83	7.48662
1178.2	4.45752
1181.58	4.18426
1184.95	1.7604
1188.33	1.43286
1191.7	2.10475
1195.08	0.644531
1198.45	1.83882
1201.83	0.392815
1205.2	0.972488
1208.58	1.17057
1211.95	4.87902
1215.33	1.62132
1218.7	2.12447
1222.08	3.95653
1225.45	3.41397
1228.83	5.21487
1232.2	3.08747
1235.58	5.93988
1238.95	5.50127
1242.32	1.73463
1245.7	3.78014
1249.07	6.09214
1252.45	1.84202
1255.82	1.40199
1259.2	0.37764
1262.57	0.282257
1265.95	0.133003
1269.32	0.619217
1272.7	0.524033
1276.07	2.15585
1279.45	2.41753
1282.82	3.01109
1286.2	3.97008
1289.57	1.71625
1292.95	3.71433
1296.32	2.71739
1299.7	0.549316
