Measurement: Raman, 532 nm, unoriented, Raman Data Processed
Mineral: Eosphorite
Rruff sample: R130480
Ideal chemistry: Mn^2+^AlPO_4_(OH)_2_H_2_O
Locality: Taraqual, Minas Gerais, Brazil
Source: Rock Currier
Description: Sprays of tan colored bladed crystals
Raman shift (cm-1)	intensity
138.759	0
142.134	13.877
145.509	19.4492
148.883	11.3604
152.258	28.3887
155.633	6.58691
159.008	13.4463
162.383	22.8867
165.757	59.915
169.132	81.3848
172.507	110.144
175.882	108.514
179.257	107.767
182.632	105.935
186.006	96.5244
189.381	114.032
192.756	129.022
196.131	159.112
199.506	176.564
202.881	205.447
206.255	209.355
209.63	185.487
213.005	176.786
216.38	181.081
219.755	184.52
223.129	186.137
226.504	220.406
229.879	227.812
233.254	230.815
236.629	237.594
240.004	219.231
243.378	196.022
246.753	181.281
250.128	175.648
253.503	190.731
256.878	184.227
260.252	159.249
263.627	125.384
267.002	69.4121
270.377	3.14062
273.752	20.1328
277.127	0.981445
280.501	8.10059
283.876	54.9375
287.251	121.723
290.626	131.823
294.001	214.227
297.375	273.579
300.75	344.087
304.125	393.705
307.5	411.01
310.875	374.068
314.25	304.09
317.624	250.167
320.999	198.105
324.374	148.477
327.749	120.022
331.124	95.3564
334.498	86.9971
337.873	95.6885
341.248	74.29
344.623	42.1435
347.998	52.7012
351.373	51.5664
354.747	46.8496
358.122	33.0049
361.497	24.0156
364.872	48.6553
368.247	61.2607
371.621	60.0889
374.996	69.0371
378.371	77.2148
381.746	113.346
385.121	140.704
388.495	180.019
391.87	221.379
395.245	274.527
398.62	270.042
401.995	233.97
405.37	142.306
408.744	89.2236
412.119	48.5303
415.494	22.8203
418.869	8.20996
422.244	32.5566
425.618	17.8135
428.993	8.15234
432.368	31.0527
435.743	39.6045
439.118	77.5713
442.493	174.296
445.867	294.842
449.242	451.695
452.617	661.024
455.992	928.151
459.367	1171.54
462.741	1371.45
466.116	1335.5
469.491	1232.06
472.866	1053.54
476.241	828.046
479.615	601.099
482.99	397.359
486.365	263.214
489.74	199.289
493.115	129.292
496.49	69.7881
499.864	63.8926
503.239	61.6318
506.614	37.2783
509.989	24.959
513.364	9.20312
516.739	0.595703
520.113	4.4209
523.488	24.2812
526.863	18.248
530.238	11.0674
533.613	37.0693
536.987	46.748
540.362	71.4971
543.737	153.034
547.112	295.985
550.487	464.07
553.861	691.129
557.236	920.039
560.611	897.236
563.986	554.694
567.361	319.272
570.736	259.517
574.11	275.349
577.485	322.703
580.86	355.546
584.235	447.736
587.61	547.923
590.985	683.574
594.359	681.143
597.734	616.026
601.109	529.179
604.484	494.286
607.859	510.215
611.233	501.215
614.608	469.497
617.983	412.9
621.358	373.339
624.733	299.99
628.107	236.049
631.482	194.725
634.857	152.829
638.232	102.087
641.607	70.8867
644.982	60.4082
648.356	56.1367
651.731	29.5918
655.106	23.8408
658.481	24.5225
661.856	6.3418
665.231	15.5488
668.605	8.41504
671.98	2.11816
675.355	9.24414
678.73	12.4707
682.105	2.15723
685.479	10.1748
688.854	19.5352
692.229	13.8701
695.604	62.1514
698.979	22.6523
702.354	18.9736
705.728	26.957
709.103	32.4131
712.478	20.5713
715.853	7.86914
719.227	27.9346
722.602	24.8594
725.977	15.8467
729.352	5.16699
732.727	35
736.102	21.6221
739.476	34.6172
742.851	21.1094
746.226	21.1768
749.601	32.21
752.976	3.87891
756.351	2.23535
759.725	13.2793
763.1	11.8525
766.475	14.6709
769.85	28.9756
773.225	75.4668
776.599	70.0674
779.974	69.5869
783.349	81.2656
786.724	66.9375
790.099	69.2959
793.473	100.414
796.848	106.215
800.223	122.87
803.598	107.456
806.973	125.28
810.348	108.673
813.722	121.697
817.097	119.077
820.472	131.197
823.847	101.168
827.222	95.3203
830.597	99.6621
833.971	97.0293
837.346	80.8662
840.721	85.4736
844.096	65.46
847.471	62.9004
850.846	78.1543
854.22	66.4541
857.595	58.2324
860.97	91.792
864.345	121.427
867.72	140.703
871.094	127.325
874.469	78.3623
877.844	52.5244
881.219	65.4014
884.594	62.0234
887.968	49.0449
891.343	41.3086
894.718	64.6377
898.093	77.1465
901.468	38.8691
904.842	22.1182
908.217	27.9062
911.592	8.19141
914.967	10.5117
918.342	5.18555
921.717	12.5479
925.091	0.472656
928.466	2.56543
931.841	19.4307
935.216	22.1934
938.591	1.16602
941.966	64.8897
945.34	130.898
948.715	210.373
952.09	390.344
955.465	792.982
958.84	1433.35
962.214	2292.5
965.589	3152.65
968.964	3465.73
972.339	2919.53
975.714	2225.4
979.088	1688.41
982.463	1343.68
985.838	1134.61
989.213	1033.62
992.588	1015.2
995.963	1063.88
999.337	1206.29
1002.71	1407.48
1006.09	1671.5
1009.46	1805.31
1012.84	1785.75
1016.21	1571.23
1019.59	1187.4
1022.96	853.683
1026.34	684.489
1029.71	528.2
1033.09	430.103
1036.46	299.484
1039.84	214.607
1043.21	167.554
1046.59	127.814
1049.96	117.228
1053.33	110.901
1056.71	139.435
1060.08	162.19
1063.46	136.247
1066.83	70.4492
1070.21	59.5986
1073.58	50.541
1076.96	8.23438
1080.33	12.5703
1083.71	14.6055
1087.08	2.80078
1090.46	9.60449
1093.83	8.41406
1097.21	7.04785
1100.58	6.69629
1103.96	32.8066
1107.33	51.5869
1110.71	66.7529
1114.08	70.3115
1117.46	39.959
1120.83	2.83789
1124.21	25.4678
1127.58	9.96387
1130.95	6.59277
1134.33	23.3223
1137.7	89.9287
1141.08	136.624
1144.45	121.639
1147.83	71.8106
1151.2	71.624
1154.58	73.4316
1157.95	65.4932
1161.33	79.5635
1164.7	105.7
1168.08	90.7705
1171.45	74.3408
1174.83	78.9844
1178.2	76.0967
1181.58	60.2188
1184.95	87.1582
1188.33	56.7969
1191.7	92.9814
1195.08	99.4434
1198.45	71.8447
1201.83	73.5098
1205.2	79.0732
1208.58	75.6025
1211.95	73.1982
1215.33	60.4062
1218.7	77.5889
1222.08	66.1894
1225.45	72.9473
1228.83	50.0732
1232.2	32.4492
1235.58	15.5479
1238.95	14.332
1242.32	8.65137
1245.7	43.5508
1249.07	41.6357
1252.45	32.8242
1255.82	48.0225
1259.2	61.8223
1262.57	28.1582
1265.95	39.127
1269.32	24.9062
1272.7	23.2168
1276.07	1.81055
1279.45	3.84961
1282.82	7.99805
1286.2	25.0918
1289.57	59.168
1292.95	73.9727
1296.32	2.82812
1299.7	3.94727
