Measurement: Raman, 780 nm, unoriented, Raman Data Processed
Mineral: Eosphorite
Rruff sample: R130480
Ideal chemistry: Mn^2+^AlPO_4_(OH)_2_H_2_O
Locality: Taraqual, Minas Gerais, Brazil
Source: Rock Currier
Description: Sprays of tan colored bladed crystals
Raman shift (cm-1)	intensity
134.348	0
137.24	3.89002
140.133	7.84021
143.026	2.0697
145.918	1.62415
148.811	7.47705
151.704	3.16894
154.597	1.00171
157.489	1.24853
160.382	0.816406
163.275	1.72986
166.167	6.05835
169.06	9.88184
171.953	17.2554
174.845	16.5637
177.738	16.1738
180.631	19.125
183.524	19.3912
186.416	19.1155
189.309	26.0515
192.202	25.7246
195.094	31.9877
197.987	39.4667
200.88	44.0842
203.773	58.0891
206.665	60.7644
209.558	55.3622
212.451	48.6843
215.343	49.4064
218.236	48.1033
221.129	46.1395
224.021	49.2304
226.914	55.8699
229.807	56.0852
232.7	46.0282
235.592	38.7918
238.485	33.7169
241.378	37.5162
244.27	37.4951
247.163	34.5524
250.056	32.9106
252.948	28.8373
255.841	26.9161
258.734	28.1266
261.627	21.852
264.519	15.5124
267.412	4.90442
270.305	3.33728
273.197	3.8761
276.09	1.1156
278.983	3.69495
281.875	3.84668
284.768	11.5107
287.661	18.2811
290.553	24.574
293.446	34.3823
296.339	46.1691
299.232	55.2004
302.124	66.6467
305.017	74.2565
307.91	77.3036
310.802	69.6758
313.695	58.9614
316.588	51.6913
319.481	41.9446
322.373	28.5571
325.266	26.2496
328.159	16.5857
331.051	12.8585
333.944	13.9845
336.837	9.13159
339.729	6.57397
342.622	5.79688
345.515	6.94458
348.408	8.20264
351.3	9.49585
354.193	11.7786
357.086	8.69263
359.978	4.24219
362.871	1.48193
365.764	2.34717
368.656	1.98804
371.549	1.02808
374.442	1.71448
377.334	1.64978
380.227	2.70886
383.12	2.98157
386.013	7.25159
388.905	9.68237
391.798	20.8755
394.691	21.0541
397.583	25.5017
400.476	23.1426
403.369	22.6366
406.262	13.6467
409.154	8.73145
412.047	5.00745
414.94	0.028687
417.832	4.66345
420.725	1.72339
423.618	1.47913
426.51	4.29565
429.403	6.94043
432.296	7.68127
435.188	9.1062
438.081	14.7971
440.974	22.578
443.867	33.9382
446.759	45.4967
449.652	67.0435
452.545	91.1659
455.437	118.908
458.33	157.035
461.223	197.546
464.115	214.412
467.008	208.751
469.901	184.04
472.794	159.03
475.686	131.642
478.579	101.512
481.472	77.551
484.364	57.8694
487.257	47.9791
490.15	33.9569
493.043	30.4974
495.935	20.464
498.828	13.0719
501.721	12.8911
504.613	9.09815
507.506	8.53162
510.399	4.40418
513.291	6.90479
516.184	1.53625
519.077	0.495728
521.97	1.97253
524.862	1.59119
527.755	2.54675
530.648	3.3092
533.54	0.807373
536.433	1.81897
539.326	5.59375
542.218	11.5247
545.111	17.0131
548.004	26.5955
550.896	38.1246
553.789	53.5375
556.682	81.7683
559.575	96.3748
562.467	71.7585
565.36	46.5066
568.253	30.0456
571.145	24.7151
574.038	29.0143
576.931	34.2958
579.823	41.9829
582.716	54.3839
585.609	62.7572
588.502	78.1488
591.394	101.434
594.287	108.298
597.18	102.704
600.072	87.847
602.965	74.8124
605.858	65.2888
608.75	62.7837
611.643	56.4767
614.536	53.8071
617.429	51.1086
620.321	44.4962
623.214	39.2465
626.107	32.8042
629	26.0701
631.892	24.1184
634.785	17.9486
637.678	15.1298
640.57	10.0579
643.463	5.62512
646.356	2.52271
649.248	2.79468
652.141	0.955933
655.034	3.08935
657.927	0.440796
660.819	1.62854
663.712	4.84631
666.605	0.157104
669.497	0.827881
672.39	3.66943
675.283	2.52661
678.175	3.10986
681.068	2.70569
683.961	3.2489
686.854	4.37207
689.746	2.57886
692.639	4.55444
695.532	1.90515
698.424	2.39661
701.317	0.24707
704.21	3.73547
707.102	3.849
709.995	1.35352
712.888	3.17883
715.78	4.02673
718.673	4.5863
721.566	1.89795
724.459	1.34082
727.351	0.390869
730.244	4.63391
733.137	3.27051
736.029	1.13672
738.922	5.04468
741.815	4.28601
744.707	1.50989
747.6	4.17554
750.493	3.41528
753.386	2.47839
756.278	1.55481
759.171	3.04285
762.064	4.80554
764.956	4.52588
767.849	3.11145
770.742	1.33289
773.635	1.01892
776.527	2.07715
779.42	1.93005
782.313	0.910522
785.205	3.31836
788.098	1.30945
790.991	4.71594
793.883	9.9021
796.776	7.0271
799.669	6.42017
802.562	11.2057
805.454	15.3403
808.347	14.1548
811.24	13.7518
814.132	16.0389
817.025	15.9069
819.918	12.0867
822.81	11.0568
825.703	11.5041
828.596	11.8922
831.489	10.0947
834.381	9.39868
837.274	12.3065
840.167	11.8184
843.059	9.3772
845.952	10.8336
848.845	9.64923
851.737	8.66333
854.63	10.7138
857.523	16.6777
860.415	10.2831
863.308	13.1246
866.201	13.1898
869.094	15.4231
871.986	16.266
874.879	13.7302
877.772	13.072
880.664	17.0901
883.557	18.618
886.45	15.4145
889.342	8.2467
892.235	9.534
895.128	5.12598
898.021	6.48431
900.913	6.30328
903.806	5.35577
906.699	1.25574
909.591	2.66248
912.484	0.498047
915.377	2.24915
918.269	1.70026
921.162	1.55731
924.055	2.39459
926.948	0.036133
929.84	0.977905
932.733	0.593994
935.626	2.45886
938.518	2.61096
941.411	3.17658
944.304	7.40576
947.197	15.1106
950.089	25.2894
952.982	44.6799
955.875	74.7134
958.767	112.45
961.66	171.855
964.553	261.632
967.445	333.954
970.338	335.312
973.231	272.881
976.124	208.264
979.016	161.256
981.909	126.129
984.802	105.98
987.694	92.4294
990.587	84.9
993.48	87.0475
996.372	88.7805
999.265	97.0649
1002.16	110.623
1005.05	127.893
1007.94	143.067
1010.84	155.809
1013.73	157.927
1016.62	139.095
1019.51	114.188
1022.41	88.3059
1025.3	67.6627
1028.19	55.8203
1031.09	44.4182
1033.98	38.5794
1036.87	29.0257
1039.76	23.6239
1042.66	18.6713
1045.55	15.1973
1048.44	8.74231
1051.33	10.3496
1054.23	11.6433
1057.12	14.8987
1060.01	13.5627
1062.9	14.26
1065.8	7.3985
1068.69	5.84796
1071.58	2.28522
1074.47	1.2771
1077.37	0.058655
1080.26	1.45721
1083.15	1.9378
1086.05	2.36969
1088.94	2.86255
1091.83	2.12262
1094.72	0.979614
1097.62	0.443665
1100.51	1.3045
1103.4	0.716003
1106.3	8.6402
1109.19	10.4029
1112.08	3.94873
1114.97	0.565735
1117.87	1.03644
1120.76	0.794434
1123.65	0.879517
1126.54	0.837158
1129.44	1.08612
1132.33	2.8385
1135.22	8.14459
1138.12	10.6606
1141.01	11.7009
1143.9	14.1799
1146.79	11.5453
1149.69	9.58002
1152.58	9.10419
1155.47	9.30176
1158.36	9.92554
1161.26	6.81439
1164.15	5.87231
1167.04	8.80853
1169.93	8.61023
1172.83	6.66046
1175.72	4.81335
1178.61	4.26178
1181.51	3.83905
1184.4	4.64087
1187.29	3.92456
1190.18	3.62225
1193.08	6.03607
1195.97	2.87317
1198.86	4.39203
1201.75	7.02264
1204.65	3.21216
1207.54	5.3443
1210.43	4.45789
1213.33	5.16644
1216.22	4.06006
1219.11	3.57275
1222	5.87665
1224.9	1.72003
1227.79	3.14459
1230.68	5.51117
1233.57	5.54773
1236.47	1.10944
1239.36	3.39618
1242.25	1.54932
1245.14	0.9552
1248.04	0.675598
1250.93	1.10693
1253.82	3.01086
1256.71	6.12237
1259.61	4.92401
1262.5	6.08868
1265.39	5.90625
1268.29	2.80688
1271.18	5.24255
1274.07	3.92371
1276.96	0.863464
1279.86	0.815186
