Measurement: Raman, 780 nm, unoriented, Raman Data Processed
Mineral: Ernstite
Rruff sample: R141205
Ideal chemistry: (Mn^2+^,Fe^3+^)AlPO_4_(OH,O)_2_
Source: Smithsonian
Description: Type sample
Raman shift (cm-1)	intensity
173.317	0
176.21	1.02548
179.103	1.52936
181.995	2.17987
184.888	1.71533
187.781	4.40796
190.674	8.92218
193.566	11.4677
196.459	14.2916
199.352	15.4207
202.244	16.2976
205.137	15.105
208.03	12.0387
210.923	9.37268
213.815	4.17343
216.708	2.91315
219.601	3.49594
222.493	3.4646
225.386	4.71075
228.279	8.74075
231.171	9.66244
234.064	11.8458
236.957	11.7
239.85	15.9302
242.742	18.9482
245.635	24.5786
248.528	28.0174
251.42	24.7175
254.313	24.2383
257.206	21.4746
260.098	17.0043
262.991	13.3077
265.884	7.52777
268.776	3.73749
271.669	2.81906
274.562	2.27042
277.455	1.28305
280.347	1.32404
283.24	2.37851
286.133	3.09256
289.025	7.8844
291.918	8.53436
294.811	14.9767
297.704	16.0504
300.596	20.3588
303.489	19.6211
306.382	17.2994
309.274	18.2949
312.167	14.6997
315.06	11.4679
317.952	10.2915
320.845	7.38504
323.738	4.11893
326.63	4.34305
329.523	0.874573
332.416	0.560242
335.309	0.658752
338.201	0.210144
341.094	0.071838
343.987	0.454956
346.879	1.42419
349.772	1.7843
352.665	0.751495
355.558	0.131104
358.45	0.74762
361.343	3.42035
364.236	5.06897
367.128	11.5745
370.021	13.3529
372.914	17.1983
375.806	23.2556
378.699	28.093
381.592	30.2825
384.485	34.2664
387.377	36.5404
390.27	34.8749
393.163	35.0042
396.055	30.6756
398.948	28.0293
401.841	26.6369
404.733	25.3102
407.626	22.0463
410.519	19.8535
413.411	19.3237
416.304	18.7495
419.197	19.4549
422.09	19.3106
424.982	20.5486
427.875	21.8139
430.768	19.3127
433.66	20.1452
436.553	16.9499
439.446	17.7706
442.339	16.1709
445.231	17.0245
448.124	19.7542
451.017	20.3647
453.909	24.344
456.802	29.149
459.695	35.8847
462.587	38.8942
465.48	42.7586
468.373	38.6603
471.265	35.5331
474.158	31.5088
477.051	24.5535
479.944	21.5889
482.836	17.9963
485.729	17.1585
488.622	15.7364
491.514	16.9973
494.407	17.5088
497.3	16.6986
500.192	17.5225
503.085	13.9707
505.978	11.8097
508.871	10.1913
511.763	7.65463
514.656	2.34155
517.549	0.030243
520.441	1.17963
523.334	2.00809
526.227	2.19177
529.12	3.64728
532.012	1.93066
534.905	0.674286
537.798	0.948334
540.69	5.75351
543.583	9.94656
546.476	13.2315
549.368	19.2415
552.261	22.8619
555.154	31.6547
558.047	34.7885
560.939	36.1439
563.832	33.8325
566.725	29.8834
569.617	28.6002
572.51	28.7077
575.403	28.4
578.295	28.4231
581.188	30.8565
584.081	36.014
586.974	40.3698
589.866	49.9663
592.759	66.1389
595.652	82.5445
598.544	91.1526
601.437	96.2275
604.33	92.2524
607.222	84.3713
610.115	72.7424
613.008	64.7231
615.901	55.323
618.793	46.229
621.686	40.7862
624.579	34.0989
627.471	28.0263
630.364	26.1065
633.257	21.8936
636.149	20.1548
639.042	18.9986
641.935	14.353
644.828	12.7782
647.72	10.301
650.613	8.00093
653.506	8.02261
656.398	6.00879
659.291	3.67999
662.184	0.591324
665.077	0.269852
667.969	0.376572
670.862	1.938
673.755	1.53171
676.647	0.23555
679.54	0.083817
682.433	2.31282
685.325	3.82562
688.218	3.85272
691.111	5.41228
694.004	6.27913
696.896	6.90155
699.789	7.53862
702.682	7.10094
705.574	8.04096
708.467	8.83873
711.36	8.80136
714.252	6.9024
717.145	6.82906
720.038	6.07582
722.931	6.19223
725.823	4.73363
728.716	3.54384
731.609	3.69174
734.501	3.29968
737.394	1.37431
740.287	0.375656
743.179	0.208954
746.072	0.464417
748.965	0.181641
751.857	0.072479
754.75	0.554245
757.643	0.050354
760.536	0.50531
763.428	0.726898
766.321	0.41452
769.214	1.48175
772.106	2.19867
774.999	2.28775
777.892	2.67279
780.784	2.26807
783.677	2.35559
786.57	3.84787
789.463	5.01306
792.355	5.8251
795.248	5.88295
798.141	4.50458
801.033	5.14041
803.926	6.07527
806.819	5.33969
809.712	6.11711
812.604	4.0376
815.497	5.70076
818.39	6.49786
821.282	6.39346
824.175	6.48697
827.068	6.49127
829.96	5.67717
832.853	6.97301
835.746	6.72975
838.639	7.00978
841.531	9.04672
844.424	7.66923
847.317	8.32912
850.209	9.47223
853.102	10.6275
855.995	10.6071
858.887	10.3792
861.78	12.6204
864.673	12.2096
867.566	12.6437
870.458	11.3981
873.351	11.6807
876.244	10.5883
879.136	11.0309
882.029	10.0618
884.922	8.39664
887.814	7.55353
890.707	8.00967
893.6	5.15782
896.492	2.01848
899.385	2.01689
902.278	2.00331
905.171	1.14639
908.063	0.571701
910.956	0.647934
913.849	1.97823
916.741	1.41731
919.634	2.33513
922.527	2.42525
925.419	0.349396
928.312	0.848267
931.205	1.308
934.098	3.11005
936.99	4.68437
939.883	6.83817
942.776	9.22632
945.668	14.0309
948.561	17.4112
951.454	25.5543
954.346	34.902
957.239	51.0859
960.132	72.4228
963.025	105.66
965.917	147.802
968.81	183.391
971.703	192.622
974.595	171.241
977.488	143.815
980.381	119.115
983.274	106.245
986.166	91.3845
989.059	83.1018
991.952	75.1935
994.844	69.7298
997.737	66.9338
1000.63	63.1793
1003.52	60.4718
1006.41	57.4885
1009.31	53.2906
1012.2	50.6665
1015.09	46.7527
1017.99	41.6493
1020.88	33.209
1023.77	28.4944
1026.66	24.1011
1029.56	21.0798
1032.45	20.5879
1035.34	20.3714
1038.23	20.9437
1041.13	24.1144
1044.02	23.3777
1046.91	25.0437
1049.81	26.6133
1052.7	28.7751
1055.59	26.9787
1058.48	25.4601
1061.38	22.1516
1064.27	18.2446
1067.16	13.671
1070.05	10.954
1072.95	8.12228
1075.84	4.07643
1078.73	2.42731
1081.62	0.830887
1084.52	1.30531
1087.41	1.63414
1090.3	2.19823
1093.2	2.72873
1096.09	0.703613
1098.98	1.12387
1101.87	2.85908
1104.77	6.11795
1107.66	6.35364
1110.55	6.71582
1113.44	9.13855
1116.34	6.88086
1119.23	7.59602
1122.12	5.98561
1125.02	6.01466
1127.91	6.39403
1130.8	6.48749
1133.69	4.5883
1136.59	4.37866
1139.48	3.0404
1142.37	3.59279
1145.27	1.74966
1148.16	1.96756
1151.05	1.55882
1153.94	0.267731
1156.84	3.96855
1159.73	0.494461
1162.62	0.414383
1165.51	1.04898
1168.41	1.63324
1171.3	1.26916
1174.19	1.85776
1177.08	2.14909
1179.98	1.28916
1182.87	1.5996
1185.76	2.17122
1188.65	4.61765
1191.55	3.22296
1194.44	3.90714
1197.33	3.94322
1200.23	2.72139
1203.12	4.27114
1206.01	3.83765
1208.9	3.00537
1211.8	4.265
1214.69	4.43111
1217.58	3.55806
1220.47	3.09782
1223.37	2.68078
1226.26	2.35734
1229.15	1.66162
1232.05	2.63876
1234.94	1.69455
1237.83	2.54971
1240.72	2.41629
1243.62	1.06017
1246.51	1.9359
1249.4	1.29761
1252.3	1.04393
1255.19	2.25451
1258.08	1.75446
1260.97	1.25317
1263.87	1.11972
1266.76	0.869186
1269.65	1.26151
1272.54	1.51197
1275.44	1.45991
1278.33	0.55957
1281.22	1.44911
