Measurement: Raman, 532 nm, unoriented, Raman Data Processed
Mineral: Ernstite
Rruff sample: R141205
Ideal chemistry: (Mn^2+^,Fe^3+^)AlPO_4_(OH,O)_2_
Source: Smithsonian
Description: Type sample
Raman shift (cm-1)	intensity
177.723	0
180.616	0.076202
183.508	0.973969
186.401	2.32655
189.294	4.62337
192.187	5.43385
195.079	8.433
197.972	8.39211
200.865	9.08781
203.757	9.10442
206.65	7.95647
209.543	6.37273
212.435	5.64002
215.328	3.12744
218.221	2.79643
221.114	2.49446
224.006	1.63196
226.899	2.00586
229.792	1.27286
232.684	1.01839
235.577	1.63927
238.47	1.91261
241.363	1.53366
244.255	3.06558
247.148	3.87595
250.041	5.73877
252.933	7.37826
255.826	7.49577
258.719	8.28497
261.611	5.97678
264.504	4.15494
267.397	3.94746
270.29	1.99149
273.182	2.02162
276.075	0.721619
278.968	2.4223
281.86	1.63959
284.753	2.74416
287.646	1.49139
290.538	6.09547
293.431	7.22197
296.324	9.71982
299.217	10.7544
302.109	10.574
305.002	12.2886
307.895	14.8466
310.787	13.7726
313.68	11.9305
316.573	11.0789
319.466	7.49553
322.358	4.82007
325.251	4.88753
328.144	3.97746
331.036	0.445251
333.929	0.84314
336.822	0.254105
339.714	0.246445
342.607	0.191574
345.5	0.537506
348.392	0.700745
351.285	0.537766
354.178	0.259781
357.07	0.64563
359.963	1.02521
362.856	0.639328
365.749	0.229065
368.641	1.20433
371.534	2.2666
374.427	5.3231
377.319	7.30136
380.212	9.93558
383.105	10.6438
385.998	11.0797
388.89	12.5588
391.783	10.6614
394.676	9.04547
397.568	10.4871
400.461	9.01904
403.354	6.5184
406.246	6.10889
409.139	4.57855
412.032	4.30325
414.925	4.30541
417.817	5.24113
420.71	5.77602
423.603	4.55701
426.495	6.65025
429.388	6.77864
432.281	6.55782
435.173	8.78946
438.066	8.85443
440.959	10.6165
443.851	12.6442
446.744	15.1616
449.637	16.5941
452.53	20.2759
455.422	25.4325
458.315	30.9367
461.208	35.7562
464.1	37.4759
466.993	38.4592
469.886	33.5264
472.779	29.6524
475.671	24.8232
478.564	17.7352
481.457	15.3871
484.349	16.3123
487.242	14.1372
490.135	16.1118
493.027	16.7756
495.92	15.8168
498.813	15.1222
501.705	16.0447
504.598	13.4336
507.491	11.3322
510.384	9.0499
513.276	5.50061
516.169	3.09488
519.062	0.909195
521.955	0.630676
524.847	1.43671
527.74	2.04166
530.633	1.87979
533.525	0.2565
536.418	0.420181
539.311	2.0954
542.203	2.84219
545.096	6.0603
547.989	8.77774
550.881	10.5569
553.774	13.2861
556.667	16.7908
559.56	19.4909
562.452	19.2564
565.345	18.4818
568.238	17.785
571.13	16.678
574.023	18.0276
576.916	19.0629
579.808	21.5434
582.701	21.5967
585.594	25.7553
588.486	28.7636
591.379	36.1036
594.272	44.4809
597.165	51.2279
600.057	55.4657
602.95	53.6022
605.843	47.164
608.735	41.2249
611.628	36.456
614.521	29.7518
617.413	25.7567
620.306	21.0559
623.199	19.1414
626.092	16.0564
628.984	13.2491
631.877	13.2735
634.77	10.3761
637.662	10.9336
640.555	8.58362
643.448	8.16022
646.341	7.01694
649.233	6.82455
652.126	5.47112
655.019	4.14592
657.911	1.36288
660.804	0.035202
663.697	0.904312
666.589	1.11015
669.482	1.50626
672.375	1.2196
675.268	1.08978
678.16	0.709885
681.053	2.2235
683.946	2.47508
686.838	6.34476
689.731	5.57008
692.624	5.07163
695.516	5.98029
698.409	8.119
701.302	7.27779
704.194	8.94653
707.087	10.0906
709.98	8.2865
712.873	8.09787
715.765	7.8408
718.658	8.11775
721.551	7.42483
724.443	5.09563
727.336	4.78278
730.229	5.08487
733.121	3.02896
736.014	1.89386
738.907	1.3226
741.8	0.727081
744.692	0.932617
747.585	1.64238
750.478	0.063828
753.37	0.882904
756.263	0.632004
759.156	0.221725
762.048	0.779602
764.941	1.28586
767.834	1.60895
770.727	0.780579
773.619	1.82489
776.512	1.66403
779.405	1.55492
782.297	2.52921
785.19	3.11435
788.083	4.32056
790.976	4.93436
793.868	4.71207
796.761	5.03203
799.654	3.51871
802.546	7.11696
805.439	7.51671
808.332	7.90807
811.224	8.41844
814.117	7.8158
817.01	9.79083
819.903	10.4064
822.795	9.15511
825.688	10.4272
828.581	9.24381
831.473	10.1423
834.366	11.6757
837.259	10.8962
840.151	12.2536
843.044	12.7487
845.937	14.5608
848.83	13.1101
851.722	14.2226
854.615	15.6006
857.508	16.7071
860.4	17.9237
863.293	17.9157
866.186	18.0356
869.078	17.1793
871.971	17.6164
874.864	18.1906
877.756	16.1561
880.649	15.026
883.542	13.3337
886.435	12.3687
889.327	10.0911
892.22	10.3688
895.113	8.03076
898.005	5.47798
900.898	4.66624
903.791	2.3154
906.683	1.25908
909.576	0.390549
912.469	1.58603
915.362	0.844894
918.254	1.17346
921.147	1.01054
924.04	0.422577
926.932	0.725983
929.825	0.35379
932.718	0.83194
935.611	1.62482
938.503	0.08786
941.396	1.41341
944.289	4.17494
947.181	5.51978
950.074	6.51723
952.967	11.7148
955.859	20.2861
958.752	33.6469
961.645	52.1459
964.538	77.4361
967.43	104.933
970.323	121.408
973.216	115.69
976.108	101.473
979.001	84.74
981.894	75.0674
984.786	66.1139
987.679	61.3072
990.572	56.3401
993.465	55.525
996.357	53.9222
999.25	52.8386
1002.14	53.3402
1005.03	53.3962
1007.93	51.1336
1010.82	46.8566
1013.71	46.804
1016.61	39.8326
1019.5	34.1286
1022.39	29.9895
1025.28	24.0955
1028.18	23.1371
1031.07	21.1516
1033.96	22.4617
1036.86	23.3448
1039.75	25.5913
1042.64	25.9116
1045.53	26.3061
1048.43	29.0341
1051.32	27.7912
1054.21	28.2094
1057.1	26.8902
1060	21.5258
1062.89	21.3905
1065.78	15.9309
1068.67	13.3451
1071.57	8.87967
1074.46	4.17105
1077.35	2.07904
1080.24	0.235565
1083.14	0.802933
1086.03	2.4122
1088.92	0.74437
1091.82	1.25848
1094.71	0.117844
1097.6	1.41345
1100.49	4.10435
1103.39	5.39818
1106.28	7.33836
1109.17	8.37619
1112.07	10.1432
1114.96	10.119
1117.85	8.7308
1120.74	9.26154
1123.64	9.81178
1126.53	5.90497
1129.42	6.04552
1132.31	5.28145
1135.21	4.2664
1138.1	4.65686
1140.99	3.46054
1143.88	3.51173
1146.78	2.70656
1149.67	0.141342
1152.56	1.15108
1155.46	0.135147
1158.35	1.53505
1161.24	0.584747
1164.13	0.55014
1167.03	0.386978
1169.92	0.328354
1172.81	0.877991
1175.7	1.05689
1178.6	1.82745
1181.49	3.05644
1184.38	1.96388
1187.28	3.30061
1190.17	2.17232
1193.06	2.51723
1195.95	2.95113
1198.85	0.822632
1201.74	2.02435
1204.63	2.95909
1207.52	3.01147
1210.42	2.5567
1213.31	2.34608
1216.2	1.83583
1219.1	3.5693
1221.99	2.88182
1224.88	1.51332
1227.77	3.38434
1230.67	1.9095
1233.56	2.63422
1236.45	3.21698
1239.34	3.05846
1242.24	2.04662
1245.13	1.30579
1248.02	1.31697
1250.91	2.70825
1253.81	1.42584
1256.7	3.25194
1259.59	2.21643
1262.49	2.12051
1265.38	0.98172
1268.27	2.02234
1271.16	1.33925
1274.06	1.90213
1276.95	1.33137
1279.84	1.84857
1282.73	1.10976
1285.63	2.10419
1288.52	0.90564
1291.41	0.816071
1294.31	1.65132
1297.2	0.367203
1300.09	0.46431
