Measurement: Raman, 532 nm, unoriented, Raman Data Processed
Mineral: Gaitite
Rruff sample: R130625
Ideal chemistry: Ca^2+^_2_Zn^2+^(As^5+^O_4_)_2_2H_2_O
Locality: Municipio de Pitiquito, Sonora, Mexico
Source: Rock Currier
Description: Grey to white tabular or granular crystals, associated with colorless irregular austinite and quartz
Raman shift (cm-1)	intensity
156.597	0
159.49	130.753
162.383	270.84
165.275	116.079
168.168	0.500488
171.061	9.56104
173.953	54.4253
176.846	96.8159
179.739	51.9541
182.632	21.2895
185.524	6.71045
188.417	2.56299
191.31	35.2051
194.202	137.5
197.095	242.376
199.988	168.454
202.881	52.479
205.773	25.0869
208.666	40.7778
211.559	90.7832
214.451	106.644
217.344	49.0737
220.237	28.6304
223.129	30.5464
226.022	50.1533
228.915	66.6836
231.808	107.93
234.7	193.792
237.593	225.883
240.486	218.659
243.378	183.534
246.271	128.861
249.164	97.519
252.056	91.4487
254.949	56.4522
257.842	14.3325
260.735	5.29394
263.627	12.4937
266.52	14.7979
269.413	26.0278
272.305	69.5005
275.198	110.956
278.091	132.753
280.983	81.21
283.876	36.9805
286.769	29.0869
289.661	23.0903
292.554	33.4033
295.447	55.2031
298.34	92.7285
301.232	162.5
304.125	247.905
307.018	278.784
309.91	133.958
312.803	38.794
315.696	0.217285
318.589	4.87012
321.481	3.54297
324.374	7.37988
327.267	10.8911
330.159	23.4023
333.052	64.3618
335.945	105.314
338.837	170.686
341.73	257.123
344.623	378.6
347.515	537.168
350.408	726.693
353.301	887.788
356.194	916.371
359.086	914.377
361.979	901.958
364.872	720.653
367.764	423.587
370.657	276.996
373.55	211.183
376.442	187.669
379.335	197.128
382.228	239.64
385.121	323.144
388.013	412.121
390.906	341.106
393.799	175.152
396.691	86.2349
399.584	61.3023
402.477	33.9546
405.37	18.061
408.262	3.24658
411.155	17.3545
414.048	17.373
416.94	0.965332
419.833	8.12012
422.726	3.49072
425.618	0.639648
428.511	33.228
431.404	68.5405
434.296	83.2461
437.189	123.012
440.082	202.156
442.975	303.696
445.867	421.435
448.76	491.102
451.653	541.957
454.545	640.251
457.438	750.494
460.331	715.892
463.224	512.957
466.116	286.439
469.009	158.978
471.902	98.3457
474.794	72.8555
477.687	38.0312
480.58	21.6143
483.473	10.6646
486.365	21.209
489.258	15.2036
492.151	19.0034
495.043	3.06885
497.936	4.42432
500.829	8.896
503.721	20.8189
506.614	45.0444
509.507	24.6714
512.399	0.330566
515.292	3.66065
518.185	7.44434
521.078	4.98584
523.97	6.81445
526.863	2.42529
529.756	11.1294
532.648	24.4351
535.541	22.0996
538.434	15.1943
541.327	20.606
544.219	19.1245
547.112	19.9888
550.005	25.3047
552.897	27.2349
555.79	25.2969
558.683	27.7402
561.575	19.8061
564.468	25.4751
567.361	21.4819
570.254	22.2812
573.146	26.8496
576.039	24.1582
578.932	31.4263
581.824	18.8227
584.717	26.6836
587.61	7.76172
590.502	8.81055
593.395	9.57324
596.288	0.686523
599.181	3.52246
602.073	4.91016
604.966	22.0234
607.859	13.3569
610.751	13.0688
613.644	3.93652
616.537	3.78369
619.429	8.70312
622.322	5.92236
625.215	12.6797
628.107	33.0552
631	35.2568
633.893	79.4731
636.786	92.3599
639.678	97.3496
642.571	45.5435
645.464	33.3442
648.356	36.1699
651.249	52.1865
654.142	57.5747
657.034	67.4282
659.927	77.7129
662.82	82.5005
665.713	78.9517
668.605	87.042
671.498	77.2505
674.391	58.8423
677.283	53.5649
680.176	43.6904
683.069	35.585
685.962	35.3227
688.854	33.834
691.747	29.4678
694.64	27.8145
697.532	39.2305
700.425	23.0068
703.318	13.9287
706.21	16.3213
709.103	7.80762
711.996	3.36084
714.889	5.62549
717.781	4.19287
720.674	18.8379
723.567	5.37646
726.459	13.5898
729.352	10.1738
732.245	18.6118
735.137	29.3901
738.03	34.9175
740.923	34.6065
743.816	36.564
746.708	45.8013
749.601	44.3975
752.494	25.9365
755.386	5.86035
758.279	6.73438
761.172	13.3276
764.064	9.16797
766.957	3.38135
769.85	41.8638
772.742	80.6397
775.635	129.477
778.528	191.781
781.421	257.106
784.313	281.643
787.206	230.66
790.099	134.832
792.991	63.0679
795.884	32.0122
798.777	29.9248
801.669	74.4346
804.562	164.977
807.455	294.127
810.348	447.891
813.24	632.611
816.133	716.295
819.026	752.605
821.918	942.451
824.811	1533.83
827.704	2386.11
830.597	3616.73
833.489	5488.89
836.382	7285.62
839.275	6080.1
842.167	3032.66
845.06	1473.79
847.953	787.237
850.846	462.437
853.738	298.984
856.631	232.192
859.524	253.713
862.416	396.689
865.309	664.907
868.202	1024.01
871.094	1487.74
873.987	2140.06
876.88	2638.28
879.773	1824.28
882.665	821.058
885.558	344.192
888.451	151.159
891.343	68.8164
894.236	53.9575
897.129	51.3286
900.021	45.1934
902.914	25.3648
905.807	13.3569
908.699	14.0727
911.592	3.01269
914.485	3.93359
917.378	8.54004
920.27	9.87012
923.163	15.9805
926.056	0.806152
928.948	13.7969
931.841	15.0796
934.734	12.0015
937.626	7.80615
940.519	7.45019
943.412	14.2725
946.305	10.1357
949.197	11.4375
952.09	6.84521
954.983	7.25537
957.875	22.0405
960.768	33.8018
963.661	27.5493
966.553	33.3862
969.446	25.3828
972.339	41.2954
975.232	56.8848
978.124	64.0503
981.017	54.4692
983.91	47.3174
986.802	51.7827
989.695	48.3325
992.588	56.5947
995.481	45.5327
998.373	47.3955
1001.27	39.7764
1004.16	51.1133
1007.05	36.9697
1009.94	41.5547
1012.84	27.1758
1015.73	38.6719
1018.62	28.6094
1021.51	12.0435
1024.41	22.4487
1027.3	36.71
1030.19	22.543
1033.09	34.4541
1035.98	21.4375
1038.87	18.7354
1041.76	30.1138
1044.66	42.5435
1047.55	47.3477
1050.44	38.374
1053.33	29.9507
1056.23	36.3638
1059.12	20.4946
1062.01	30.2915
1064.9	30.6289
1067.8	8.00146
1070.69	3.39502
1073.58	22.5146
1076.48	21.2646
1079.37	11.5513
1082.26	7.75879
1085.15	13.3506
1088.05	23.4785
1090.94	12.4922
1093.83	13.7539
1096.72	23.7842
1099.62	25.7832
1102.51	30.0449
1105.4	63.457
1108.3	99.6797
1111.19	143.237
1114.08	152.843
1116.97	90.8496
1119.87	39.4502
1122.76	2.89356
1125.65	6.02441
1128.55	1.64746
1131.44	9.04297
1134.33	2.04883
1137.22	6.58398
1140.12	14.4815
1143.01	5.68945
1145.9	4.40039
1148.79	3.8418
1151.69	7.01367
1154.58	14.2588
1157.47	14.6445
1160.36	13.7275
1163.26	21.6758
1166.15	17.749
1169.04	10.127
1171.93	0.311523
1174.83	28.5068
1177.72	30.8867
1180.61	77.2812
1183.51	94.709
1186.4	130.096
1189.29	117.769
1192.18	84.4805
1195.08	61.9443
1197.97	36.3486
1200.86	18.7451
1203.76	24.0654
1206.65	27.6543
1209.54	45.501
1212.43	39.4492
1215.33	66.6836
1218.22	83.6641
1221.11	100.551
1224	128.227
1226.9	108.969
1229.79	112.704
1232.68	104.829
1235.58	91.917
1238.47	66.5312
1241.36	71.6816
1244.25	78.1465
1247.14	104.586
1250.04	118.803
1252.93	102.947
1255.82	114.136
1258.72	103.902
1261.61	65.4707
1264.5	45.7998
1267.39	48.3291
1270.29	44.3486
1273.18	15.6572
1276.07	7.42383
1278.96	0.275391
1281.86	10.7295
1284.75	29.4297
1287.64	46.2158
1290.54	25.291
1293.43	38.6611
1296.32	1.04688
1299.21	16.2998
