Measurement: Raman, 780 nm, unoriented, Raman Data Processed
Mineral: Gaitite
Rruff sample: R130625
Ideal chemistry: Ca^2+^_2_Zn^2+^(As^5+^O_4_)_2_2H_2_O
Locality: Municipio de Pitiquito, Sonora, Mexico
Source: Rock Currier
Description: Grey to white tabular or granular crystals, associated with colorless irregular austinite and quartz
Raman shift (cm-1)	intensity
138.687	0
141.579	5.48254
144.472	1.77429
147.365	0.40332
150.257	2.5719
153.15	14.291
156.043	36.114
158.936	82.8845
161.828	160.205
164.721	85.2777
167.614	16.2527
170.506	9.43677
173.399	29.5585
176.292	60.6169
179.185	34.2707
182.077	0.85791
184.97	6.50952
187.863	3.08179
190.755	19.6163
193.648	67.4164
196.541	154.083
199.433	136.466
202.326	46.9778
205.219	32.0236
208.112	39.7725
211.004	70.222
213.897	97.3418
216.79	57.5786
219.682	24.7087
222.575	18.8063
225.468	18.7803
228.36	20.4347
231.253	31.4182
234.146	42.6639
237.038	63.1548
239.931	64.963
242.824	59.2817
245.717	55.7389
248.609	46.0935
251.502	49.5945
254.395	44.7822
257.287	20.6277
260.18	6.00085
263.073	2.29773
265.966	6.57764
268.858	18.1186
271.751	38.5721
274.644	61.9633
277.536	80.2585
280.429	58.7256
283.322	17.3665
286.214	6.09155
289.107	6.51221
292	11.931
294.892	11.9678
297.785	24.5753
300.678	33.0023
303.571	59.3283
306.463	76.895
309.356	48.4927
312.249	13.8553
315.141	3.27234
318.034	5.69507
320.927	5.13605
323.82	0.911133
326.712	2.75946
329.605	16.0465
332.498	40.038
335.39	67.2999
338.283	105.204
341.176	153.234
344.068	226.972
346.961	337.382
349.854	463.639
352.747	585.635
355.639	613.055
358.532	559.671
361.425	530.869
364.317	447.229
367.21	296.018
370.103	185.851
372.995	139.091
375.888	122.273
378.781	126.219
381.674	161.27
384.566	233.83
387.459	335.095
390.352	331.439
393.244	171.359
396.137	79.5936
399.03	40.1785
401.923	20.344
404.815	6.82678
407.708	7.62653
410.601	6.08881
413.493	3.56915
416.386	2.8429
419.279	2.22437
422.171	1.22253
425.064	6.41669
427.957	15.2152
430.849	28.3624
433.742	48.7842
436.635	74.5677
439.528	111.367
442.42	171.505
445.313	237.491
448.206	278.672
451.098	255.468
453.991	266.052
456.884	310.998
459.776	322.139
462.669	248.528
465.562	154.797
468.455	95.2598
471.347	63.2018
474.24	36.687
477.133	26.6482
480.025	15.6956
482.918	11.7491
485.811	13.8347
488.704	9.66565
491.596	13.2437
494.489	10.746
497.382	5.7132
500.274	7.97577
503.167	5.32184
506.06	0.937378
508.952	4.00263
511.845	1.79523
514.738	5.05713
517.63	1.37573
520.523	3.18054
523.416	0.524353
526.308	2.48505
529.201	0.349976
532.094	1.64972
534.987	0.761902
537.879	3.31079
540.772	4.92725
543.665	1.0907
546.557	4.77985
549.45	2.85602
552.343	4.33752
555.236	5.48614
558.128	3.90497
561.021	5.33081
563.914	4.4892
566.806	6.93939
569.699	10.3278
572.592	8.73932
575.484	5.33411
578.377	7.74225
581.27	7.13776
584.163	7.2923
587.055	5.98883
589.948	4.34216
592.841	0.108398
595.733	3.93018
598.626	8.10315
601.519	8.14508
604.412	11.2195
607.304	8.28607
610.197	10.034
613.09	9.20062
615.982	6.47473
618.875	9.06396
621.768	13.458
624.66	16.3739
627.553	20.1557
630.446	28.8271
633.338	42.5973
636.231	69.1168
639.124	93.4534
642.017	54.0134
644.909	28.6934
647.802	26.7936
650.695	28.9202
653.587	29.5857
656.48	34.6044
659.373	41.8364
662.265	45.3793
665.158	49.2954
668.051	44.1708
670.944	37.1793
673.836	35.5227
676.729	36.6655
679.622	29.9548
682.514	26.5347
685.407	21.0989
688.3	21.085
691.192	17.7638
694.085	12.1528
696.978	12.2028
699.871	7.46277
702.763	6.38794
705.656	5.33777
708.549	3.33307
711.441	2.79742
714.334	0.651123
717.227	0.448059
720.12	6.13178
723.012	4.02142
725.905	2.25977
728.798	3.7558
731.69	0.472168
734.583	2.27771
737.476	1.39648
740.368	2.36871
743.261	4.35901
746.154	3.75354
749.047	3.88934
751.939	5.86237
754.832	2.78735
757.725	1.56329
760.617	8.03198
763.51	13.8082
766.403	29.9085
769.295	56.4745
772.188	82.165
775.081	123.094
777.973	170.01
780.866	233.406
783.759	282.545
786.652	278.185
789.544	193.91
792.437	111.445
795.33	65.4261
798.222	46.0523
801.115	56.2548
804.008	87.6762
806.9	152.957
809.793	237.448
812.686	362.631
815.579	439.109
818.471	383.163
821.364	335.376
824.257	377.932
827.149	497.982
830.042	732.659
832.935	1235.32
835.827	2000.45
838.72	2045.87
841.613	1114.33
844.506	514.563
847.398	255.799
850.291	129.161
853.184	69.4118
856.076	39.1568
858.969	30.3995
861.862	52.3315
864.755	94.9579
867.647	159.381
870.54	268.066
873.433	473.856
876.325	754.855
879.218	676.665
882.111	319.774
885.003	126.459
887.896	50.3235
890.789	18.8064
893.682	3.15338
896.574	1.76593
899.467	3.02924
902.36	3.86883
905.252	7.84735
908.145	2.91394
911.038	2.63831
913.93	7.1449
916.823	1.48419
919.716	3.06354
922.609	10.9196
925.501	5.44153
928.394	0.642822
931.287	4.4538
934.179	9.23517
937.072	9.13049
939.965	4.29181
942.857	1.53363
945.75	0.502563
948.643	0.793579
951.535	4.13251
954.428	1.9389
957.321	7.57343
960.214	8.86352
963.106	9.99457
965.999	14.2783
968.892	13.6766
971.784	18.2243
974.677	18.0779
977.57	24.0389
980.462	23.7653
983.355	23.4444
986.248	22.1079
989.141	22.4343
992.033	20.0208
994.926	18.4301
997.819	22.8301
1000.71	21.8254
1003.6	23.7538
1006.5	18.8206
1009.39	15.6264
1012.28	20.6635
1015.17	18.4364
1018.07	13.2889
1020.96	10.165
1023.85	9.4928
1026.75	10.8535
1029.64	12.2685
1032.53	11.2311
1035.42	13.2468
1038.32	8.43152
1041.21	10.5427
1044.1	7.16559
1046.99	6.29108
1049.89	7.88458
1052.78	6.01465
1055.67	2.71875
1058.57	4.39026
1061.46	2.18591
1064.35	2.76306
1067.24	0.164124
1070.14	0.20343
1073.03	0.497131
1075.92	1.21375
1078.81	3.84186
1081.71	3.51605
1084.6	5.69128
1087.49	5.33508
1090.38	2.30621
1093.28	0.506897
1096.17	3.04449
1099.06	8.72473
1101.96	14.6789
1104.85	23.6603
1107.74	41.715
1110.63	60.2232
1113.53	61.7942
1116.42	46.6395
1119.31	26.1464
1122.2	14.7822
1125.1	10.9787
1127.99	9.85632
1130.88	11.686
1133.78	14.6769
1136.67	12.8242
1139.56	6.58032
1142.45	2.9079
1145.35	5.5614
1148.24	7.55798
1151.13	9.12756
1154.03	8.20215
1156.92	13.3915
1159.81	10.5173
1162.7	6.26343
1165.6	2.13074
1168.49	1.05676
1171.38	0.329224
1174.27	7.40582
1177.17	14.5012
1180.06	22.8688
1182.95	36.0334
1185.84	43.8011
1188.74	37.3258
1191.63	22.9668
1194.52	7.8136
1197.41	3.96258
1200.31	3.03577
1203.2	0.537537
1206.09	0.848572
1208.99	3.81262
1211.88	11.5357
1214.77	17.9628
1217.66	21.134
1220.56	29.7515
1223.45	35.2985
1226.34	38.8041
1229.23	40.2492
1232.13	37.2572
1235.02	34.267
1237.91	30.9954
1240.81	31.5285
1243.7	34.4194
1246.59	36.9798
1249.48	39.3836
1252.38	42.0579
1255.27	41.2732
1258.16	40.7211
1261.05	36.6122
1263.95	25.6508
1266.84	16.032
1269.73	10.2294
1272.62	2.67828
1275.52	1.44733
1278.41	2.13586
1281.3	0.008484
