Measurement: Raman, 780 nm, unoriented, Raman Data Processed
Mineral: Galeite
Rruff sample: R160078
Ideal chemistry: Na_15_(S^6+^O_4_)_5_ClF_4_
Locality: Searles Lake, San Bernardino County, California, USA
Source: Rock Currier
Description: Colorless to pale grey barrel-shaped crystals, intergrown with schairerite
Raman shift (cm-1)	intensity
110.724	0
114.099	16.209
117.474	14.7812
120.848	6.00195
124.223	56.7422
127.598	53.4844
130.973	30.5488
134.348	9.14453
137.722	10.3027
141.097	78.8301
144.472	94.7188
147.847	133.293
151.222	215.578
154.597	186.902
157.971	146.141
161.346	217.965
164.721	202.795
168.096	146.734
171.471	133.025
174.845	133.897
178.22	184.731
181.595	202.055
184.97	186.316
188.345	167.703
191.72	154.713
195.094	195.695
198.469	133.857
201.844	183.957
205.219	194.508
208.594	154.957
211.969	164.869
215.343	144.246
218.718	149.748
222.093	165.312
225.468	132.981
228.843	132.949
232.217	125.769
235.592	192.812
238.967	59.7461
242.342	98.1953
245.717	155.074
249.091	80.9121
252.466	67.6465
255.841	78.0039
259.216	41.873
262.591	69.1875
265.966	48.459
269.34	56.916
272.715	97.5977
276.09	69.0859
279.465	99.0898
282.84	83.3848
286.214	39.3848
289.589	60.4648
292.964	9.68555
296.339	13.6719
299.714	45.7148
303.089	77.2637
306.463	25.0898
309.838	4.60547
313.213	24.0234
316.588	42.5645
319.963	23.9238
323.337	60.4395
326.712	55.7793
330.087	11.1875
333.462	84.9004
336.837	39.4336
340.212	34.0449
343.586	9.4043
346.961	43.3633
350.336	37.9805
353.711	109.514
357.086	79.6562
360.46	56.752
363.835	34.4434
367.21	128.603
370.585	74.4473
373.96	23.3984
377.334	11.2578
380.709	21.2324
384.084	17.0469
387.459	16.7363
390.834	79.3574
394.209	22.4062
397.583	39.6035
400.958	2.55664
404.333	27.6816
407.708	10.5
411.083	5.00391
414.457	9.63086
417.832	88.4297
421.207	61.4512
424.582	70.0332
427.957	122.213
431.332	62.7031
434.706	101.607
438.081	101.545
441.456	132.904
444.831	114.879
448.206	195.889
451.58	251.039
454.955	369.863
458.33	562.049
461.705	763.617
465.08	873.459
468.455	1113.67
471.829	1320.95
475.204	759.193
478.579	416.65
481.954	192.856
485.329	164.51
488.704	153.375
492.078	195.998
495.453	127.371
498.828	112.463
502.203	63.1016
505.577	52.877
508.952	89.2617
512.327	64.2519
515.702	17.709
519.077	109.234
522.452	20.2109
525.826	35.6699
529.201	22.3184
532.576	4.47461
535.951	16.5312
539.326	46.9746
542.701	42.9434
546.075	81.1465
549.45	62.1211
552.825	12.3789
556.2	7.40039
559.575	11.0176
562.949	10.207
566.324	31.5469
569.699	25.0625
573.074	64.1016
576.449	76.4297
579.823	102.307
583.198	171.119
586.573	63.1895
589.948	98.5566
593.323	76.8438
596.698	98.9785
600.072	136.457
603.447	182.695
606.822	164.275
610.197	161.106
613.572	218.344
616.947	352.643
620.321	684.086
623.696	928.537
627.071	882.496
630.446	938.098
633.821	877.84
637.195	737.318
640.57	270.352
643.945	70.1914
647.32	65.6094
650.695	35.2285
654.069	46.3164
657.444	51.4023
660.819	60.9141
664.194	17.0469
667.569	39.3535
670.944	8.88477
674.318	7.04297
677.693	36.2773
681.068	41.4434
684.443	32.4473
687.818	42.127
691.192	16.8984
694.567	5.12109
697.942	48.5273
701.317	25.457
704.692	26.5957
708.067	23.0684
711.441	40.8613
714.816	25.4023
718.191	6.67773
721.566	27.2773
724.941	28.4844
728.316	67.4629
731.69	42.1016
735.065	35.625
738.44	32.7988
741.815	49.5293
745.19	61.252
748.564	28.8398
751.939	14.2695
755.314	25.1367
758.689	10.5469
762.064	64.5996
765.438	42.6465
768.813	60.9941
772.188	20.041
775.563	14.9238
778.938	24.7812
782.313	0.681641
785.687	29.8379
789.062	40.1055
792.437	52.5449
795.812	56.4219
799.187	25.2324
802.562	44.2109
805.936	88.3203
809.311	112.795
812.686	115.82
816.061	91.709
819.436	83.2656
822.81	93.3496
826.185	101.822
829.56	87.8106
832.935	95.2832
836.31	96.4219
839.684	116.475
843.059	74.9551
846.434	80.4844
849.809	85.0801
853.184	92.4141
856.558	71.751
859.933	85.5762
863.308	47.8203
866.683	44.8135
870.058	74.2744
873.433	66.6162
876.807	11.7852
880.182	58.1807
883.557	69.4385
886.932	57.5928
890.307	44.7842
893.682	17.749
897.056	42.1631
900.431	31.1543
903.806	52.1367
907.181	50.0791
910.556	43.3506
913.93	26.2314
917.305	20.4619
920.68	16.7754
924.055	22.4141
927.43	29.0439
930.804	76.5293
934.179	74.666
937.554	61.8887
940.929	28.5693
944.304	23.7158
947.679	17.9658
951.053	9.95898
954.428	36.5547
957.803	31.4219
961.178	13.1943
964.553	22.8672
967.928	72.4033
971.302	23.6035
974.677	87.6689
978.052	140.553
981.427	304.164
984.802	551.982
988.176	1117.55
991.551	2761.24
994.926	5671.76
998.301	4924.59
1001.68	2631.46
1005.05	2472.97
1008.42	722.231
1011.8	246.185
1015.17	149.778
1018.55	98.2148
1021.92	81.7451
1025.3	48.2656
1028.67	66.8057
1032.05	44.7188
1035.42	43.5117
1038.8	7.79688
1042.17	61.4014
1045.55	42.792
1048.92	12.4922
1052.3	29.9961
1055.67	43.8018
1059.05	86.4707
1062.42	38.6357
1065.8	20.3643
1069.17	44.0703
1072.55	5.40332
1075.92	28.0498
1079.3	6.87207
1082.67	45.0703
1086.05	32.2315
1089.42	19.5547
1092.8	31.7646
1096.17	4.46973
1099.55	66.5801
1102.92	113.397
1106.3	143.013
1109.67	133.47
1113.05	116.841
1116.42	97.6201
1119.79	144.147
1123.17	232.819
1126.54	334.79
1129.92	272.044
1133.29	188.244
1136.67	130.36
1140.04	55.7959
1143.42	66.5186
1146.79	48.3848
1150.17	65.0293
1153.54	91.1797
1156.92	59.7764
1160.29	8.69629
1163.67	11.6992
1167.04	97.2617
1170.42	174.11
1173.79	84.2012
1177.17	83.9482
1180.54	73.5703
1183.92	54.417
1187.29	47.3154
1190.66	75.5781
1194.04	31.5176
1197.41	24.9121
1200.79	2.70898
1204.16	22.7949
1207.54	8.8457
1210.91	23.374
1214.29	7.61523
1217.66	2.14746
1221.04	25.1572
1224.41	73.7637
1227.79	7.34668
1231.16	16.0283
1234.54	13.206
1237.91	7.87109
1241.29	22.2773
1244.66	47.7373
1248.04	29.3447
1251.41	31.4004
1254.79	43.7275
1258.16	94.7598
1261.54	79.79
1264.91	49.5107
1268.29	18.0264
1271.66	17.1982
1275.04	55.1318
1278.41	1.39844
1281.79	9.42285
