Measurement: Raman, 532 nm, unoriented, Raman Data Processed
Mineral: Galeite
Rruff sample: R160078
Ideal chemistry: Na_15_(S^6+^O_4_)_5_ClF_4_
Locality: Searles Lake, San Bernardino County, California, USA
Source: Rock Currier
Description: Colorless to pale grey barrel-shaped crystals, intergrown with schairerite
Raman shift (cm-1)	intensity
146.473	0
149.365	35.334
152.258	137.545
155.151	74.5195
158.044	14.2344
160.936	69.5039
163.829	73.7227
166.722	63.9336
169.614	73.6484
172.507	25.5664
175.4	161.926
178.293	183.93
181.185	265.902
184.078	251.965
186.971	188.191
189.863	159.516
192.756	165.816
195.649	225.969
198.542	203.008
201.434	157.715
204.327	147.59
207.22	66.6016
210.112	76.875
213.005	109.387
215.898	154.613
218.79	105.797
221.683	91.3047
224.576	47.75
227.469	7.10938
230.361	18.2695
233.254	136.594
236.147	163.867
239.039	199.305
241.932	101.234
244.825	37.0273
247.717	22.5742
250.61	53.3125
253.503	84.3438
256.396	118.023
259.288	91.7188
262.181	140.598
265.074	116.481
267.966	54.6758
270.859	94.3438
273.752	98.2812
276.644	153.391
279.537	156.957
282.43	147.566
285.322	278.516
288.215	225.152
291.108	86.4414
294.001	35.5352
296.893	20.5859
299.786	88.9023
302.679	143.984
305.571	111.934
308.464	49.043
311.357	39.4297
314.25	28.1953
317.142	39.4883
320.035	100.812
322.928	129.719
325.82	161.527
328.713	124.711
331.606	44.8242
334.498	159.379
337.391	148.992
340.284	114.863
343.176	68.2695
346.069	60.1445
348.962	72.3008
351.855	79.6172
354.747	103.543
357.64	46.9453
360.533	95.1133
363.425	64.9531
366.318	153.027
369.211	143.059
372.103	115.328
374.996	91.7617
377.889	104.922
380.782	38.4648
383.674	58.625
386.567	68.9727
389.46	96.75
392.352	128.887
395.245	184.356
398.138	268.133
401.031	222.004
403.923	131.035
406.816	8.9375
409.709	59.5078
412.601	74.875
415.494	179.051
418.387	96.0586
421.279	43.4258
424.172	19.5938
427.065	24.0508
429.957	76.9766
432.85	51.8711
435.743	10.3281
438.636	41.3242
441.528	14.6523
444.421	45.043
447.314	147.898
450.206	204.484
453.099	401.156
455.992	647.941
458.885	857.957
461.777	1208.5
464.67	1358.51
467.563	1503.36
470.455	1844.24
473.348	1890.22
476.241	1049.85
479.133	410.883
482.026	133.332
484.919	48.5156
487.812	82.7031
490.704	115.156
493.597	25.793
496.49	12.543
499.382	19.4844
502.275	104.09
505.168	151.867
508.06	101.852
510.953	10.6836
513.846	99.8203
516.739	58.6641
519.631	15.668
522.524	27.5859
525.417	53.9375
528.309	78.0234
531.202	239.457
534.095	210.551
536.987	92.2227
539.88	124.062
542.773	112.981
545.665	156.324
548.558	154.324
551.451	150.363
554.344	200.117
557.236	230.773
560.129	224.777
563.022	147.383
565.914	119.234
568.807	143.332
571.7	199.031
574.592	249.078
577.485	241.891
580.378	152.82
583.271	139.34
586.163	192.793
589.056	132.695
591.949	81.5625
594.841	25.7734
597.734	96.707
600.627	149.93
603.519	208.695
606.412	246.481
609.305	406.207
612.198	609.035
615.09	973.477
617.983	1624.68
620.876	2741.73
623.768	4198.72
626.661	3232.78
629.554	3321.74
632.447	3082.71
635.339	2699.81
638.232	2236.51
641.125	692.473
644.017	209.426
646.91	112.848
649.803	115.844
652.695	187.047
655.588	125.934
658.481	55.6172
661.374	13.957
664.266	85.9023
667.159	9.31641
670.052	6.13281
672.944	11.8711
675.837	7.76562
678.73	5.14453
681.622	7.98828
684.515	74.3672
687.408	81.7148
690.301	162.195
693.193	73.8789
696.086	238.988
698.979	165.941
701.871	168.297
704.764	90.3828
707.657	97.5195
710.549	125.207
713.442	95.4922
716.335	133.773
719.227	125.316
722.12	89.0469
725.013	117.828
727.906	139.32
730.798	97.7227
733.691	171.688
736.584	159.383
739.476	160.824
742.369	158.918
745.262	94.7227
748.154	128.223
751.047	118.594
753.94	52.4961
756.833	14.082
759.725	35.4727
762.618	11.8828
765.511	17.4961
768.403	3.66016
771.296	118.781
774.189	209.535
777.082	198.996
779.974	238.766
782.867	205.129
785.76	81.9141
788.652	113.164
791.545	124.758
794.438	191.801
797.33	155.801
800.223	176.793
803.116	95.793
806.009	187.758
808.901	123.633
811.794	199.527
814.687	216.082
817.579	270.09
820.472	418.266
823.365	330.973
826.257	292.309
829.15	298.066
832.043	272.227
834.936	260.621
837.828	294.211
840.721	259.852
843.614	126.871
846.506	104.066
849.399	176.906
852.292	199.285
855.184	74.418
858.077	2.05469
860.97	90.1406
863.863	233.742
866.755	163.644
869.648	290.957
872.541	204.164
875.433	22.4844
878.326	17.4531
881.219	15.0586
884.111	28.7578
887.004	43.4688
889.897	20.6719
892.79	95.3242
895.682	213.414
898.575	354.461
901.468	254.184
904.36	200.727
907.253	265.883
910.146	237.68
913.038	158.586
915.931	232.246
918.824	261.375
921.717	293.871
924.609	355.734
927.502	362.414
930.395	297.012
933.287	272.281
936.18	147.969
939.073	210.57
941.966	261.652
944.858	121.383
947.751	48.918
950.644	0.636719
953.536	49.2617
956.429	62.0391
959.322	189.914
962.214	252.418
965.107	131.141
968	64.8203
970.893	174.508
973.785	356.629
976.678	641.934
979.571	838.344
982.463	1574.06
985.356	3499.23
988.249	6788.63
991.141	13132.8
994.034	27684.1
996.927	31865.9
999.819	24807.4
1002.71	14067.5
1005.61	14771.2
1008.5	5180.88
1011.39	1669
1014.28	947.328
1017.18	542.727
1020.07	280.703
1022.96	127.078
1025.85	211.891
1028.75	132.578
1031.64	127.234
1034.53	129.172
1037.42	3.32812
1040.32	97.7109
1043.21	175.141
1046.1	144.234
1048.99	131.406
1051.89	148.422
1054.78	129.789
1057.67	126.867
1060.57	222.523
1063.46	152.641
1066.35	64.0391
1069.24	24.0391
1072.14	74.1328
1075.03	84.5781
1077.92	8.38281
1080.82	78.6797
1083.71	5.17188
1086.6	80.7891
1089.49	93.3828
1092.39	128.867
1095.28	162.375
1098.17	228.516
1101.06	503.547
1103.96	791.859
1106.85	653.477
1109.74	896.461
1112.63	889.117
1115.53	735.688
1118.42	773.75
1121.31	762.539
1124.21	1041.51
1127.1	1217.77
1129.99	953.094
1132.88	561.93
1135.78	363.828
1138.67	272.07
1141.56	155.867
1144.45	47.6953
1147.35	85.5781
1150.24	92.0547
1153.13	412.547
1156.03	633.422
1158.92	125.984
1161.81	101.531
1164.7	133.594
1167.6	353.711
1170.49	761.172
1173.38	439.422
1176.27	261.211
1179.17	357.969
1182.06	401.344
1184.95	210.445
1187.85	125.688
1190.74	349.172
1193.63	256.867
1196.52	226.141
1199.42	28.9922
1202.31	17.4922
1205.2	116.852
1208.09	120.023
1210.99	73.9297
1213.88	50.0625
1216.77	63.7422
1219.66	197.234
1222.56	169.094
1225.45	172.805
1228.34	161.891
1231.24	75.2891
1234.13	1.67969
1237.02	34.5781
1239.91	12.9531
1242.81	25.5625
1245.7	106.25
1248.59	144.234
1251.48	178.648
1254.38	255.578
1257.27	281.93
1260.16	246.969
1263.06	68.3438
1265.95	118.789
1268.84	158.203
1271.73	33.1641
1274.63	24.9375
1277.52	25.875
1280.41	67.3906
1283.3	88.4688
1286.2	164.109
1289.09	223.734
1291.98	174.281
1294.88	56.2734
1297.77	8.35938
1300.66	0
