Measurement: Raman, 532 nm, unoriented, Raman Data Processed
Mineral: Glecklerite
Rruff sample: R230002
Ideal chemistry: Na(C_2_H_3_O_3_)
Locality: Pusch Ridge, Santa Catalina Mountains, Tucson, Pima County, Arizona, USA
Source: Warren Lazar
Description: Colorless elongated tabular crystals, associated with NH4-glycolate minerals. Type sample
Measured chemistry: Na_0.97_(C_2_H_3_O_3_) ; The empirical formula was calculated based on 2 C apfu (from the structure determination).
Raman shift (cm-1)	intensity
91.8885	0
95.2633	24.7349
98.6381	213.385
102.013	423.03
105.388	957.492
108.763	1391.39
112.137	2262.6
115.512	3808.66
118.887	4208.05
122.262	2095.83
125.637	819.347
129.012	345.827
132.386	208.274
135.761	139.081
139.136	51.5536
142.511	13.1305
145.886	3.5354
149.26	8.32922
152.635	18.2015
156.01	20.764
159.385	9.75343
162.76	18.047
166.134	60.3506
169.509	37.0247
172.884	53.9357
176.259	102.561
179.634	154.479
183.008	122.512
186.383	83.1002
189.758	86.0143
193.133	86.8507
196.508	92.6159
199.883	103.606
203.257	100.92
206.632	80.5621
210.007	56.4767
213.382	39.7647
216.757	22.4067
220.131	17.2153
223.506	16.3475
226.881	21.7163
230.256	18.7707
233.631	24.6575
237.006	28.2919
240.38	24.9531
243.755	30.1775
247.13	21.3623
250.505	15.4157
253.88	15.0925
257.255	12.7176
260.629	9.74291
264.004	6.15228
267.379	5.90347
270.754	4.99507
274.128	1.47627
277.503	3.77205
280.878	1.88699
284.253	1.35049
287.628	0.657822
291.003	0.613953
294.377	0.722061
297.752	2.14691
301.127	1.96065
304.502	1.4489
307.877	0.580521
311.252	6.88583
314.626	0.195648
318.001	0.493484
321.376	0.951324
324.751	2.97984
328.126	1.20685
331.5	3.23991
334.875	1.13611
338.25	1.77574
341.625	1.90326
345	2.60034
348.375	2.48882
351.749	3.14423
355.124	1.48615
358.499	3.60353
361.874	2.80176
365.249	6.85129
368.623	3.71686
371.998	3.42316
375.373	3.84006
378.748	4.45149
382.123	5.94673
385.498	7.5099
388.872	7.95642
392.247	14.4516
395.622	17.0307
398.997	19.8734
402.372	30.108
405.746	31.0427
409.121	40.3353
412.496	29.015
415.871	16.2582
419.246	13.4743
422.62	10.1992
425.995	4.66655
429.37	2.72694
432.745	3.92191
436.12	1.44064
439.495	1.37868
442.869	5.29364
446.244	2.42021
449.619	2.42456
452.994	4.72012
456.369	5.15509
459.743	4.16208
463.118	4.28177
466.493	1.02268
469.868	2.77292
473.243	6.37422
476.618	5.923
479.992	10.575
483.367	8.82639
486.742	11.9326
490.117	5.93318
493.492	14.6527
496.866	18.3624
500.241	27.9729
503.616	45.384
506.991	83.7991
510.366	163.724
513.74	334.387
517.115	611.065
520.49	614.216
523.865	207.654
527.24	72.5726
530.615	33.0662
533.989	15.228
537.364	10.0111
540.739	1.01123
544.114	4.31059
547.489	3.76092
550.864	0.108887
554.238	1.47687
557.613	4.9256
560.988	3.43066
564.363	0.335815
567.737	1.09561
571.112	4.44769
574.487	3.15301
577.862	4.39304
581.237	9.2601
584.612	24.2806
587.986	42.6515
591.361	75.8815
594.736	138.005
598.111	64.7657
601.486	21.1363
604.861	6.38293
608.235	7.19656
611.61	4.1879
614.985	3.05185
618.36	2.06372
621.735	2.26013
625.109	4.11743
628.484	1.11044
631.859	1.2764
635.234	1.3175
638.609	2.75326
641.984	1.20944
645.358	1.28424
648.733	1.83969
652.108	0.176819
655.483	6.43695
658.857	4.81531
662.232	5.62567
665.607	4.2272
668.982	3.11615
672.357	4.51193
675.732	8.99417
679.106	13.7558
682.481	11.2179
685.856	21.7583
689.231	34.1787
692.606	52.6368
695.981	109.627
699.355	199.22
702.73	211.843
706.105	124.056
709.48	60.5798
712.855	30.7473
716.229	18.7004
719.604	11.7963
722.979	7.07452
726.354	4.0416
729.729	3.34787
733.104	8.05832
736.478	4.49188
739.853	2.19269
743.228	1.47482
746.603	1.53397
749.978	3.33206
753.352	3.90851
756.727	2.32275
760.102	0.620514
763.477	1.04672
766.852	5.2821
770.226	8.06912
773.601	6.37546
776.976	9.07965
780.351	8.8779
783.726	11.0251
787.101	11.4143
790.475	10.8523
793.85	8.38693
797.225	6.07767
800.6	8.20132
803.975	9.04935
807.349	0.866272
810.724	1.41144
814.099	1.21048
817.474	2.04614
820.849	2.58334
824.223	1.95843
827.598	0.545502
830.973	2.37692
834.348	5.61786
837.723	0.733185
841.098	4.33814
844.472	1.07861
847.847	10.0444
851.222	6.25876
854.597	10.3824
857.972	11.8492
861.346	17.2348
864.721	20.5901
868.096	22.4261
871.471	23.1703
874.846	31.8902
878.221	28.2497
881.595	39.2352
884.97	52.9625
888.345	74.3506
891.72	120.379
895.095	241.414
898.47	612.919
901.844	1503.84
905.219	3077.3
908.594	2050.81
911.969	523.093
915.344	190.089
918.718	90.1115
922.093	44.2409
925.468	28.5604
928.843	16.6047
932.218	11.2751
935.592	5.83527
938.967	3.84198
942.342	6.9884
945.717	2.21088
949.092	1.25855
952.467	4.45178
955.841	6.60199
959.216	11.0322
962.591	3.60666
965.966	6.47076
969.341	5.22788
972.716	2.7066
976.09	3.05606
979.465	2.78943
982.84	6.36102
986.215	4.07318
989.59	3.23312
992.964	0.475067
996.339	2.2757
999.714	2.81744
1003.09	2.91415
1006.46	2.06607
1009.84	0.465942
1013.21	1.1416
1016.59	5.50348
1019.96	7.22421
1023.34	10.18
1026.71	15.8293
1030.09	18.5566
1033.46	20.2456
1036.84	24.6849
1040.21	37.4077
1043.59	50.9328
1046.96	82.5953
1050.34	166.667
1053.71	374.304
1057.09	675.926
1060.46	396.511
1063.84	141.549
1067.21	62.4507
1070.59	33.4237
1073.96	24.8252
1077.34	19.9969
1080.71	10.8426
1084.08	8.13687
1087.46	4.6304
1090.83	7.71774
1094.21	7.48056
1097.58	6.52167
1100.96	5.43353
1104.33	4.05936
1107.71	8.16281
1111.08	5.36545
1114.46	2.05954
1117.83	0.666687
1121.21	2.43634
1124.58	2.26086
1127.96	1.93469
1131.33	4.70984
1134.71	1.62759
1138.08	4.86868
1141.46	2.2456
1144.83	1.23752
1148.21	3.13095
1151.58	5.46976
1154.95	4.66208
1158.33	2.17886
1161.7	3.30679
1165.08	8.26309
1168.45	8.63498
1171.83	6.40869
1175.2	6.76797
1178.58	7.69504
1181.95	7.18268
1185.33	6.94324
1188.7	11.813
1192.08	10.1475
1195.45	9.54224
1198.83	6.04565
1202.2	7.11508
1205.58	10.5242
1208.95	11.9105
1212.33	12.5668
1215.7	6.07358
1219.08	15.6971
1222.45	12.7871
1225.83	18.7758
1229.2	18.5092
1232.58	21.9071
1235.95	23.1479
1239.33	27.6937
1242.7	43.0373
1246.08	134.223
1249.45	490.09
1252.83	188.414
1256.2	38.3534
1259.58	9.16132
1262.95	6.15628
1266.32	3.83377
1269.7	5.31424
1273.07	0.690338
1276.45	1.32929
1279.82	2.03656
1283.2	0.359467
1286.57	3.16211
1289.95	5.60281
1293.32	38.7456
1296.7	130.056
1300.07	26.5493
