Measurement: Raman, 780 nm, unoriented, Raman Data Processed
Mineral: Glecklerite
Rruff sample: R230002
Ideal chemistry: Na(C_2_H_3_O_3_)
Locality: Pusch Ridge, Santa Catalina Mountains, Tucson, Pima County, Arizona, USA
Source: Warren Lazar
Description: Colorless elongated tabular crystals, associated with NH4-glycolate minerals. Type sample
Measured chemistry: Na_0.97_(C_2_H_3_O_3_) ; The empirical formula was calculated based on 2 C apfu (from the structure determination).
Raman shift (cm-1)	intensity
97.2734	0
100.648	0.231934
104.023	139.843
107.398	283.656
110.773	522.37
114.147	1158.1
117.522	1656.66
120.897	951.508
124.272	348.084
127.647	146.574
131.022	89.0665
134.396	77.1144
137.771	31.5903
141.146	11.0504
144.521	6.44102
147.896	2.08659
151.27	7.01822
154.645	11.7017
158.02	2.56555
161.395	13.7756
164.77	39.6856
168.144	31.3966
171.519	37.7232
174.894	58.369
178.269	82.5345
181.644	86.9126
185.019	72.8474
188.393	72.3631
191.768	71.402
195.143	76.0724
198.518	80.8487
201.893	82.8748
205.268	71.5123
208.642	55.9353
212.017	41.1296
215.392	35.0418
218.767	29.5663
222.142	28.985
225.516	26.7308
228.891	24.4431
232.266	25.8699
235.641	25.6611
239.016	25.9632
242.391	26.1314
245.765	21.9136
249.14	17.6204
252.515	17.4984
255.89	14.839
259.265	11.7214
262.639	8.99421
266.014	9.05693
269.389	5.40324
272.764	4.16334
276.139	3.14876
279.514	1.63311
282.888	1.71273
286.263	1.66853
289.638	0.364395
293.013	0.950661
296.387	0.143383
299.762	0.103611
303.137	1.02147
306.512	0.625912
309.887	0.202759
313.262	0.309509
316.636	0.60519
320.011	0.630581
323.386	0.366512
326.761	0.396355
330.136	0.126621
333.51	0.319878
336.885	0.419022
340.26	0.063976
343.635	0.171558
347.01	0.206909
350.385	0.018082
353.759	0.437359
357.134	0.065006
360.509	1.22294
363.884	0.001469
367.259	1.01953
370.634	2.03872
374.008	0.447411
377.383	1.62423
380.758	1.58999
384.133	2.51285
387.507	3.1935
390.882	4.65474
394.257	4.589
397.632	4.80858
401.007	7.4462
404.382	6.82127
407.756	8.97003
411.131	8.471
414.506	4.25336
417.881	3.52679
421.256	3.26809
424.63	2.79717
428.005	1.63293
431.38	1.20035
434.755	1.43478
438.13	0.372982
441.505	0.046814
444.879	0.64006
448.254	1.25353
451.629	1.56583
455.004	0.631859
458.379	2.00549
461.753	1.15754
465.128	1.81486
468.503	1.63131
471.878	1.9918
475.253	2.12745
478.628	2.14271
482.002	2.00268
485.377	3.03333
488.752	3.08039
492.127	3.1729
495.502	4.73596
498.876	6.08648
502.251	9.55907
505.626	15.9896
509.001	26.7848
512.376	64.6098
515.75	148.583
519.125	184.836
522.5	64.2748
525.875	21.2117
529.25	9.54051
532.625	4.42748
535.999	2.10911
539.374	1.65744
542.749	0.470459
546.124	2.44521
549.499	1.2455
552.874	1.07278
556.248	0.526482
559.623	0.932827
562.998	0.692255
566.373	1.31642
569.748	1.90297
573.122	0.7089
576.497	0.375433
579.872	1.76094
583.247	4.65802
586.622	6.005
589.996	20.0254
593.371	45.9524
596.746	31.1866
600.121	10.0362
603.496	3.47339
606.87	2.86726
610.245	1.8415
613.62	1.22394
616.995	0.963942
620.37	0.29809
623.745	1.55109
627.119	1.32882
630.494	0.783966
633.869	0.018724
637.244	0.417839
640.619	1.15223
643.994	0.141142
647.368	1.1642
650.743	0.335014
654.118	0.346004
657.493	1.70621
660.868	0.805836
664.242	0.587997
667.617	1.03988
670.992	0.868269
674.367	1.71822
677.742	0.939701
681.116	2.5605
684.491	2.7927
687.866	5.25219
691.241	6.60738
694.616	17.4649
697.99	37.3078
701.365	54.6508
704.74	35.4455
708.115	16.501
711.49	8.60494
714.865	5.82505
718.239	3.62197
721.614	2.55857
724.989	1.24
728.364	1.31479
731.739	1.59649
735.114	0.05731
738.488	0.982433
741.863	0.532116
745.238	0.539452
748.613	0.788601
751.988	1.77287
755.362	0.645739
758.737	0.07143
762.112	0.396652
765.487	0.637159
768.862	1.67616
772.236	0.88472
775.611	2.42468
778.986	1.99559
782.361	2.52475
785.736	1.9461
789.111	0.791908
792.485	2.36871
795.86	1.92676
799.235	1.9051
802.61	1.30559
805.985	0.768791
809.359	1.70786
812.734	0.698179
816.109	0.706663
819.484	0.576908
822.859	0.031113
826.234	0.199493
829.608	0.177761
832.983	0.532488
836.358	0.767422
839.733	1.2602
843.108	1.13151
846.482	0.950428
849.857	0.061893
853.232	1.95493
856.607	1.6471
859.982	1.70745
863.356	1.82447
866.731	2.23009
870.106	2.52473
873.481	3.22654
876.856	3.48302
880.231	4.73298
883.605	4.54789
886.98	7.77108
890.355	12.153
893.73	19.0658
897.105	41.6665
900.479	100.672
903.854	314.312
907.229	420.648
910.604	124.124
913.979	36.8767
917.354	15.1466
920.728	8.13224
924.103	4.81055
927.478	4.27208
930.853	2.00352
934.228	1.20542
937.602	0.021969
940.977	0.49552
944.352	0.063259
947.727	0.551159
951.102	0.487291
954.476	1.11076
957.851	1.41386
961.226	0.881514
964.601	0.540804
967.976	0.987478
971.351	0.531687
974.725	0.982061
978.1	1.75699
981.475	0.653751
984.85	0.913979
988.225	0.161804
991.6	1.41091
994.974	2.64055
998.349	0.689161
1001.72	0.917999
1005.1	1.08328
1008.47	0.432207
1011.85	0.435181
1015.22	1.27752
1018.6	0.030203
1021.97	0.499905
1025.35	1.79683
1028.72	3.23711
1032.1	1.18033
1035.47	3.01872
1038.85	4.09762
1042.22	5.23363
1045.6	7.73107
1048.97	15.0173
1052.35	29.294
1055.72	75.2335
1059.1	84.5827
1062.47	31.2995
1065.85	12.0151
1069.22	7.77974
1072.6	4.2524
1075.97	2.64349
1079.35	1.3486
1082.72	2.00989
1086.09	3.24429
1089.47	0.15205
1092.84	1.2868
1096.22	1.42032
1099.59	2.19599
1102.97	1.61694
1106.34	2.61451
1109.72	0.663671
1113.09	0.871338
1116.47	0.355551
1119.84	1.13427
1123.22	0.366177
1126.59	1.75348
1129.97	1.62986
1133.34	0.315115
1136.72	1.52141
1140.09	1.5008
1143.47	1.6728
1146.84	0.435163
1150.22	1.04965
1153.59	0.831451
1156.96	2.05688
1160.34	2.17761
1163.71	1.33945
1167.09	0.217216
1170.46	1.02874
1173.84	1.23707
1177.21	1.27903
1180.59	0.603817
1183.96	2.0278
1187.34	1.55671
1190.71	1.89772
1194.09	0.648664
1197.46	1.49653
1200.84	1.12925
1204.21	2.47824
1207.59	0.924976
1210.96	2.38847
1214.34	0.24556
1217.71	0.514118
1221.09	1.17943
1224.46	1.67715
1227.84	1.71139
1231.21	0.186768
1234.59	0.189436
1237.96	2.16671
1241.34	4.71634
1244.71	10.7131
1248.09	54.1649
1251.46	95.7037
1254.84	19.5029
1258.21	3.83703
1261.59	1.59342
1264.96	1.4564
1268.33	0.346918
1271.71	0.193789
1275.08	0.115427
1278.46	0.769608
1281.83	0.593103
