Measurement: Raman, 780 nm, unoriented, Raman Data Processed
Mineral: Gotzenite
Rruff sample: R141182
Ideal chemistry: Ca_4_NaCa_2_Ti^4+^(Si_2_O_7_)_2_(OF)F_2_
Locality: Po√ßos De Caldas, Minas Gerais, Brazil
Source: Marcelo B. Andrade
Description: Brown prismatic crystals
Measured chemistry: Na_1.00_(Ca_4.77_Na_0.62_Ce_0.12_Mn_0.12_Sr_0.10_Zr_0.07_Fe_0.07_La_0.06_Nd_0.04_Y_0.03_Dy_0.02_)(Ti_0.90_Zr_0.06_Nb_0.04_)(Si_2.01_O_7_)_2_OF_3.06_  ; lighter areas
Raman shift (cm-1)	intensity
90.5957	0
93.9705	976.417
97.3453	839.526
100.72	525.265
104.095	497.768
107.47	485.018
110.845	486.581
114.219	487.526
117.594	506.81
120.969	548.986
124.344	618.822
127.719	575.66
131.094	607.437
134.468	445.663
137.843	281.095
141.218	155.07
144.593	6.14941
147.968	112.542
151.342	111.989
154.717	96.1768
158.092	98.8252
161.467	3.37207
164.842	79.3984
168.216	215.614
171.591	334.424
174.966	484.973
178.341	617.784
181.716	821.86
185.09	1040.71
188.465	1240.54
191.84	1448.79
195.215	1723.73
198.59	2016.77
201.965	2429.81
205.339	2787.85
208.714	3289.86
212.089	3746.34
215.464	4250.71
218.839	4816.37
222.214	5399.77
225.588	5908.8
228.963	6279.48
232.338	6632.85
235.713	6876.27
239.088	7007.53
242.462	6995.09
245.837	6972.15
249.212	6789.05
252.587	6605.39
255.962	6336.06
259.336	6145.63
262.711	5869.18
266.086	5644.99
269.461	5418.47
272.836	4991.55
276.211	4577.11
279.585	4141.91
282.96	3660.58
286.335	3124.68
289.71	2699.33
293.085	2147.02
296.459	1599.04
299.834	1151.36
303.209	646.162
306.584	266.262
309.959	88.5859
313.334	287.547
316.708	284.295
320.083	266.269
323.458	125.07
326.833	89.0957
330.207	314.461
333.582	596.41
336.957	1013.33
340.332	1274.4
343.707	1440.17
347.082	1437.19
350.456	1317.06
353.831	1216
357.206	1264.96
360.581	1052.34
363.956	745.309
367.33	334.887
370.705	49.8398
374.08	515.934
377.455	790.277
380.83	559.762
384.205	270.934
387.579	1586.95
390.954	3507.3
394.329	5721.82
397.704	8094.26
401.079	10807.2
404.453	13597
407.828	16151.5
411.203	18754.7
414.578	21333.2
417.953	23896.1
421.327	26775.4
424.702	29385.3
428.077	32174.7
431.452	34952.7
434.827	37353.2
438.202	39100
441.576	40024.9
444.951	39870.1
448.326	38291.5
451.701	35342.5
455.076	31177.5
458.45	26334
461.825	21162.6
465.2	16324.6
468.575	12479.3
471.95	9467.88
475.325	7322.61
478.699	6106.09
482.074	5806.02
485.449	6188.22
488.824	7245.1
492.199	8553.1
495.573	10023.1
498.948	11274.2
502.323	12214.9
505.698	12515.1
509.073	12300.5
512.447	11427.6
515.822	10179.7
519.197	8385.58
522.572	6588.41
525.947	4809.3
529.322	3122.87
532.696	1780.78
536.071	744.246
539.446	11.6914
542.821	436.156
546.196	713.357
549.57	748.731
552.945	605.504
556.32	390.555
559.695	81.2129
563.07	257.148
566.444	623.471
569.819	1027.49
573.194	1327.59
576.569	1625.59
579.944	1846.91
583.319	1992.44
586.693	2238.21
590.068	2451.59
593.443	2568.78
596.818	2759.41
600.193	2820.41
603.567	2783.81
606.942	2537.14
610.317	2360.93
613.692	2124.4
617.067	2028.64
620.442	2016.11
623.816	2036.32
627.191	2161.19
630.566	2307.27
633.941	2462.51
637.316	2618.89
640.69	2776.88
644.065	2834.14
647.44	2876.03
650.815	2979.56
654.19	2936.94
657.564	2950.76
660.939	2889.55
664.314	2740.3
667.689	2630.74
671.064	2442.62
674.439	2283.02
677.813	2086.63
681.188	1892.87
684.563	1762.78
687.938	1654.06
691.313	1380.03
694.688	1178.72
698.062	1028.29
701.437	836.275
704.812	685.578
708.187	558.706
711.562	423.082
714.936	298.19
718.311	145.362
721.686	23.3291
725.061	51.6103
728.436	110.239
731.81	148.009
735.185	112.197
738.56	80.0234
741.935	145.359
745.31	53.0928
748.684	12.8662
752.059	109.09
755.434	197.065
758.809	297.499
762.184	372.279
765.559	463.258
768.933	564.532
772.308	704.301
775.683	726.72
779.058	820.769
782.433	767.793
785.808	745.609
789.182	661.684
792.557	573.967
795.932	541.615
799.307	447.367
802.682	371.486
806.056	449.279
809.431	424.639
812.806	449.578
816.181	651.396
819.556	752.469
822.93	967.426
826.305	1076.3
829.68	1325.75
833.055	1466.68
836.43	1633.15
839.804	1777.11
843.179	1938.57
846.554	2027.12
849.929	2136.16
853.304	2189.59
856.679	2181.82
860.053	2175.02
863.428	2246.36
866.803	2156.95
870.178	2069.76
873.553	2024.16
876.927	1921.74
880.302	1939.53
883.677	1930.29
887.052	1807.54
890.427	1788.59
893.802	1663.69
897.176	1537.58
900.551	1390.55
903.926	1243.72
907.301	1089.88
910.676	886.893
914.05	726.893
917.425	618.188
920.8	424.385
924.175	254.326
927.55	139.584
930.924	52.3613
934.299	40.8438
937.674	67.2402
941.049	71.3477
944.424	92.6621
947.799	52.498
951.173	25.3164
954.548	72.5
957.923	145.685
961.298	189.516
964.673	155.133
968.047	224.172
971.422	218.603
974.797	206.375
978.172	177.625
981.547	186.078
984.922	171.871
988.296	144.496
991.671	26.4062
995.046	3.28516
998.421	41.7754
1001.8	98.4434
1005.17	156.695
1008.54	186.262
1011.92	202.662
1015.29	108.178
1018.67	95.0254
1022.04	26.7559
1025.42	58.7148
1028.79	178.816
1032.17	296.43
1035.54	468.131
1038.92	646.875
1042.29	681.736
1045.67	765.482
1049.04	930.24
1052.42	1055.82
1055.79	1125.76
1059.17	1232.38
1062.54	1338.04
1065.92	1397.29
1069.29	1487.02
1072.67	1516.83
1076.04	1639.61
1079.42	1806.6
1082.79	2046.14
1086.17	2306.44
1089.54	2512.51
1092.92	2734.99
1096.29	2778
1099.66	3177.47
1103.04	3412.67
1106.41	3675.49
1109.79	3954.98
1113.16	4047.53
1116.54	4206.95
1119.91	4385.56
1123.29	4725.75
1126.66	4879.87
1130.04	5276
1133.41	5872.49
1136.79	6822.57
1140.16	7451.45
1143.54	7670.71
1146.91	7935.34
1150.29	7920.58
1153.66	7887.77
1157.04	7701.07
1160.41	7418.6
1163.79	7241.8
1167.16	6697.38
1170.54	6207.51
1173.91	5440.53
1177.29	4454.14
1180.66	3468.26
1184.04	2194.86
1187.41	718.336
1190.79	850.469
1194.16	901.32
1197.54	200.539
1200.91	1165.17
1204.28	2052.54
1207.66	3027.78
1211.03	4148.98
1214.41	5332.46
1217.78	5924.08
1221.16	5146.25
1224.53	3815.67
1227.91	4036.73
1231.28	4016.91
1234.66	3454.12
1238.03	2891.58
1241.41	1604.84
1244.78	1000.69
1248.16	24.9688
