Measurement: Raman, 780 nm, unoriented, Raman Data Processed
Mineral: Gotzenite
Rruff sample: R130110
Ideal chemistry: Ca_4_NaCa_2_Ti^4+^(Si_2_O_7_)_2_(OF)F_2_
Locality: Pocos de Caldas, Pocos de Caldas Plateau, Minas Gerais, Brazil
Source: Gunnar Farber
Description: Grey to pale brown aggregates of elongated crystals, associated with colorless nepheline, elongated pectolite, and white milky microcline.
Measured chemistry: Na_1.00_(Ca_4.23_Na_1.05_Zr_0.44_Mn_0.12_Sr_0.06_Ce_0.04_La_0.03_Fe_0.02_Y_0.02_Dy_0.01_)(Ti_0.90_Nd^5+^_0.10_)(Si_2.00_O_7_)_2_OF_2.98_
Raman shift (cm-1)	intensity
90.2353	0
93.6102	1196.35
96.985	704.195
100.36	165.363
103.735	264.902
107.109	455.764
110.484	516.865
113.859	628.08
117.234	858.586
120.609	1172.25
123.984	1167.43
127.358	942.15
130.733	596.184
134.108	389.607
137.483	158.82
140.858	81.5
144.232	177.719
147.607	335.035
150.982	240.242
154.357	71.0332
157.732	95.9902
161.107	155.281
164.481	353.873
167.856	442.102
171.231	565.062
174.606	587.977
177.981	682.898
181.355	771.32
184.73	1006.76
188.105	1154.25
191.48	1271.39
194.855	1401.79
198.229	1573.29
201.604	1723.3
204.979	1918.12
208.354	2089.55
211.729	2310.28
215.103	2499.38
218.478	2853.11
221.853	3117.49
225.228	3469.68
228.603	3669.84
231.978	3782.9
235.352	3886.32
238.727	3983.07
242.102	3884.96
245.477	3835.46
248.852	3798.32
252.226	3727.67
255.601	3760.17
258.976	4026.3
262.351	4287.44
265.726	4724.53
269.101	5358.5
272.475	5785.99
275.85	6253.23
279.225	6365.92
282.6	6343.94
285.975	5993.12
289.349	5728.06
292.724	5298.81
296.099	4996.62
299.474	4579.38
302.849	4220.88
306.224	3838.93
309.598	3565.57
312.973	3087.13
316.348	2890.31
319.723	2523.31
323.098	2163.89
326.472	1904.74
329.847	1788.04
333.222	1559.38
336.597	1513.43
339.972	1017.63
343.346	559.359
346.721	66.1016
350.096	400.797
353.471	596.227
356.846	661.352
360.221	707.781
363.595	816.484
366.97	822.109
370.345	758.266
373.72	786.633
377.095	572.016
380.469	119.375
383.844	1167.91
387.219	2714.02
390.594	4443
393.969	6869.87
397.344	9593.7
400.718	12578.7
404.093	15690.7
407.468	18693.5
410.843	21828.8
414.217	24856.9
417.592	27657.2
420.967	30919.4
424.342	33605.6
427.717	36118
431.092	38647.9
434.466	40841.7
437.841	42129.5
441.216	42538.7
444.591	41838.8
447.966	40102.2
451.341	37751.3
454.715	34941.5
458.09	32095.4
461.465	29762.7
464.84	27954.9
468.215	27626.1
471.589	28004.9
474.964	29377.6
478.339	31558.7
481.714	34579.6
485.089	37791.4
488.463	40977.9
491.838	43852
495.213	45948.9
498.588	47223.9
501.963	46868.5
505.337	45490.4
508.712	42549.7
512.087	38437.1
515.462	33561.6
518.837	28229.4
522.212	22808.3
525.586	17665.1
528.961	12960.5
532.336	8816.61
535.711	5660.21
539.086	3365.02
542.46	1566.82
545.835	281.039
549.21	452.336
552.585	977.406
555.96	1149.62
559.335	1056.34
562.709	922.82
566.084	638.473
569.459	399.371
572.834	222.481
576.209	235.641
579.583	530.707
582.958	943.426
586.333	1365.6
589.708	1768.94
593.083	1956.64
596.457	2291.52
599.832	2469.6
603.207	2962.28
606.582	3295.77
609.957	3615.24
613.332	3741.98
616.706	3837.42
620.081	4002.33
623.456	4099.45
626.831	4227.98
630.206	4269.73
633.58	4445.52
636.955	4542.91
640.33	4721.89
643.705	4841.2
647.08	4980.07
650.455	4955.02
653.829	4981.74
657.204	4872.7
660.579	4703.15
663.954	4423.2
667.329	4192.1
670.703	3939.35
674.078	3533.08
677.453	3114.75
680.828	2778.98
684.203	2469.18
687.577	2178.52
690.952	1901.47
694.327	1619.27
697.702	1318.61
701.077	1048
704.452	751.289
707.826	640.961
711.201	445.027
714.576	328.344
717.951	154.953
721.326	11.8477
724.7	7.70312
728.075	121.894
731.45	44.8203
734.825	0.429688
738.2	143.508
741.574	207.879
744.949	291.785
748.324	556.008
751.699	711.606
755.074	880.269
758.449	1096.41
761.823	1331.12
765.198	1457.44
768.573	1438.04
771.948	1590.84
775.323	1469.64
778.697	1392.07
782.072	1322.67
785.447	1124.94
788.822	860.172
792.197	659.801
795.572	485.602
798.946	240.867
802.321	21.3555
805.696	1.47656
809.071	151.848
812.446	165.5
815.82	37.5195
819.195	91.7578
822.57	317.324
825.945	644.164
829.32	1037.07
832.694	1320.85
836.069	1656.63
839.444	2019.33
842.819	2266.96
846.194	2496.75
849.569	2876.63
852.943	3242.36
856.318	3425.53
859.693	3638.89
863.068	3903.56
866.443	4049.52
869.817	4164
873.192	4289.23
876.567	4303.66
879.942	4300.36
883.317	4415.7
886.692	4369.74
890.066	4343.24
893.441	4205.5
896.816	4032.87
900.191	3783.37
903.566	3493.8
906.94	3277.07
910.315	2868.23
913.69	2561.27
917.065	2238.68
920.44	1929.18
923.814	1475.93
927.189	1160.48
930.564	964.176
933.939	757.562
937.314	478.918
940.689	403.742
944.063	258.172
947.438	202.164
950.813	190.219
954.188	115.066
957.563	147.008
960.937	129.328
964.312	114.684
967.687	179.867
971.062	105.531
974.437	76.3281
977.812	93.0352
981.186	145.18
984.561	33.1602
987.936	95.7227
991.311	53.2539
994.686	23.4219
998.06	9.53516
1001.43	0.675781
1004.81	56.4531
1008.18	197.914
1011.56	241.953
1014.93	204.531
1018.31	256.852
1021.68	258.508
1025.06	163.996
1028.43	53.6914
1031.81	107.141
1035.18	26.5859
1038.56	55.6836
1041.93	233.926
1045.31	257.172
1048.68	414.703
1052.06	488.43
1055.43	672.691
1058.81	709.402
1062.18	720.664
1065.56	843.91
1068.93	977.289
1072.31	1037.79
1075.68	1341.09
1079.06	1500.35
1082.43	1735.36
1085.81	1974.54
1089.18	2381.8
1092.56	2699.74
1095.93	2858.69
1099.31	3296.02
1102.68	3584.73
1106.05	3962.59
1109.43	4557.29
1112.8	4908.99
1116.18	5314.73
1119.55	5678.43
1122.93	6195.91
1126.3	6592.02
1129.68	6873.8
1133.05	7132.13
1136.43	7325.71
1139.8	7968.48
1143.18	8223.93
1146.55	8448.95
1149.93	8830.71
1153.3	9561.37
1156.68	10163.7
1160.05	11101.7
1163.43	12444.9
1166.8	13712.2
1170.18	14429
1173.55	14307.3
1176.93	13640.3
1180.3	12730.4
1183.67	11494.3
1187.05	10349.2
1190.42	9181.02
1193.8	7835.98
1197.17	6688.75
1200.55	5442.73
1203.92	3415
1207.3	1492.52
1210.67	383.312
1214.05	618.125
1217.42	1606.94
1220.8	1754.56
1224.17	1595.78
1227.55	1159.72
1230.92	7016.06
1234.3	14198.1
1237.67	21859.5
1241.05	27966.1
1244.42	35197.8
1247.8	40369
1251.17	43780.7
1254.55	42689.6
1257.92	40928.1
1261.3	40921.2
1264.67	39229.8
1268.05	34720.8
1271.42	29311.9
1274.8	19972.5
1278.17	10829.1
1281.55	2035.69
