Measurement: Raman, 780 nm, unoriented, Raman Data Processed
Mineral: Grimselite
Rruff sample: R141028
Ideal chemistry: K_3_Na(U^6+^O_2_)(CO_3_)_3_H_2_O
Locality: Rovnost Mine, Jáchymov, Krušné Hory Mts, Karlovy Vary, Bohemia, Czech Republic
Source: William W. Pinch
Description: Radial aggregate of light or greenish yellow bladed crystals
Raman shift (cm-1)	intensity
152.668	0
155.561	26.1797
158.453	58.9922
161.346	144.394
164.239	178.036
167.132	199.174
170.024	184.292
172.917	147.43
175.81	130.929
178.702	82.1562
181.595	87.8018
184.488	56.0859
187.381	42.665
190.273	29.1904
193.166	6.00586
196.059	2.92676
198.951	6.29199
201.844	11.2998
204.737	7.70801
207.629	32.8516
210.522	7.28906
213.415	6.5332
216.308	54.4853
219.2	82.5293
222.093	60.4482
224.986	101.112
227.878	127.015
230.771	181.373
233.664	214.403
236.556	253.323
239.449	329.6
242.342	400.47
245.234	497.575
248.127	475.515
251.02	403.991
253.913	362.735
256.805	368.199
259.698	416.005
262.591	433.944
265.483	443.256
268.376	327.618
271.269	283.211
274.161	223.067
277.054	241.593
279.947	218.097
282.84	204.831
285.732	186.414
288.625	140.83
291.518	91.7217
294.41	84.1934
297.303	75.6631
300.196	62.6435
303.089	49.1562
305.981	55.2285
308.874	38.3633
311.767	33.75
314.659	42.0908
317.552	25.3262
320.445	21.5605
323.337	18.4277
326.23	15.459
329.123	19.2578
332.015	44.1152
334.908	27.4805
337.801	14.7783
340.694	5.18359
343.586	3.04883
346.479	6.54102
349.372	14.8633
352.264	22.1953
355.157	2.6709
358.05	42.9707
360.942	9.74316
363.835	13.6387
366.728	49.9482
369.621	15.751
372.513	0.444336
375.406	13.5967
378.299	31.083
381.191	8.01953
384.084	2.71582
386.977	13.6465
389.87	6.50977
392.762	3.37012
395.655	13.9648
398.548	0.231445
401.44	0.46582
404.333	22.7217
407.226	16.8936
410.118	2.43945
413.011	18.5928
415.904	1
418.796	43.5869
421.689	30.3672
424.582	38.0459
427.475	30.6094
430.367	32.0469
433.26	34.6182
436.153	26.293
439.045	43.2178
441.938	58.4522
444.831	30.6348
447.724	44.6846
450.616	51.998
453.509	56.2363
456.402	56.6445
459.294	59.6201
462.187	50.2295
465.08	47.8369
467.972	35.9131
470.865	54.7959
473.758	63.0977
476.651	46.9971
479.543	64.8535
482.436	42.4209
485.329	55.7148
488.221	56.0312
491.114	65.4971
494.007	62.3516
496.899	39.5078
499.792	41.6113
502.685	20.0957
505.577	30.7031
508.47	36.9365
511.363	25.7012
514.256	39.9658
517.148	21.8643
520.041	23.7842
522.934	14.0205
525.826	21.2324
528.719	36.5469
531.612	6.67383
534.505	5.14648
537.397	24.5918
540.29	7.54394
543.183	34.6113
546.075	28.3867
548.968	35.5654
551.861	21.6035
554.753	8.82227
557.646	2.16699
560.539	5.11719
563.432	7.59082
566.324	11.2412
569.217	19.3662
572.11	19.4639
575.002	26.4824
577.895	49.7656
580.788	21.3496
583.681	62.4707
586.573	47.624
589.466	35.4072
592.359	22.0088
595.251	37.1758
598.144	35.6768
601.037	40.0664
603.929	48.8027
606.822	39.7471
609.715	31.3154
612.607	28.001
615.5	12.4902
618.393	13.2246
621.286	43.3691
624.178	9.45117
627.071	30.917
629.964	21.9824
632.856	37.4375
635.749	42.2324
638.642	35.0342
641.534	23.6284
644.427	10.1934
647.32	11.9971
650.213	4.07129
653.105	6.41211
655.998	19.8735
658.891	22.103
661.783	10.9512
664.676	10.6724
667.569	11.9136
670.462	3.20898
673.354	3.85303
676.247	16.3574
679.14	10.5557
682.032	20.5693
684.925	37.1133
687.818	44.6177
690.71	46.6148
693.603	40.8252
696.496	24.25
699.389	3.56885
702.281	0.485352
705.174	16.8189
708.067	21.3789
710.959	32.9082
713.852	26.7788
716.745	78.2754
719.637	103.325
722.53	187.696
725.423	250.69
728.316	519.832
731.208	597.99
734.101	220.355
736.994	80.5195
739.886	28.6909
742.779	22.9839
745.672	14.6001
748.564	0.262695
751.457	20.5332
754.35	3.56152
757.242	10.3789
760.135	8.11035
763.028	13.3735
765.921	6.06006
768.813	9.46387
771.706	0.936035
774.599	15.3696
777.491	3.3457
780.384	13.688
783.277	14.667
786.169	27.2627
789.062	48.7202
791.955	69.7271
794.848	95.9932
797.74	128.268
800.633	175.841
803.526	315.295
806.418	507.696
809.311	827.776
812.204	1447.9
815.096	2339.37
817.989	2619.54
820.882	2017.93
823.775	1266.72
826.667	740.636
829.56	459.076
832.453	295.906
835.345	223.59
838.238	158.488
841.131	106.211
844.024	89.2871
846.916	61.4263
849.809	50.8154
852.702	49.0723
855.594	50.169
858.487	15.4644
861.38	19.3911
864.272	18.3672
867.165	9.31934
870.058	7.27783
872.951	16.79
875.843	12.2944
878.736	6.76465
881.629	24.2979
884.521	11.4141
887.414	11.873
890.307	12.6245
893.199	10.8989
896.092	2.11279
898.985	8.65283
901.878	6.77686
904.77	9.354
907.663	8.52002
910.556	7.36377
913.448	7.95312
916.341	2.69043
919.234	11.0845
922.126	15.2505
925.019	23.6562
927.912	25.7891
930.804	22.167
933.697	22.3716
936.59	16.6992
939.483	4.95459
942.375	11.2305
945.268	10.4961
948.161	12.374
951.053	15.958
953.946	7.57275
956.839	20.7476
959.731	4.50684
962.624	5.70166
965.517	6.354
968.41	10.5703
971.302	14.8105
974.195	5.09375
977.088	3.54834
979.98	12.248
982.873	16.7778
985.766	5.45508
988.659	6.68359
991.551	18.0537
994.444	10.8999
997.337	26.2227
1000.23	21.1919
1003.12	9.32275
1006.01	11.2012
1008.91	14.0308
1011.8	5.1167
1014.69	23.4932
1017.59	20.5005
1020.48	3.39893
1023.37	2.51172
1026.26	21.3052
1029.16	6.72949
1032.05	20.7139
1034.94	11.1807
1037.83	9.77832
1040.73	9.2793
1043.62	2.14404
1046.51	34.1621
1049.4	18.3257
1052.3	35.7803
1055.19	53.8828
1058.08	93.9585
1060.98	181.147
1063.87	270.88
1066.76	159.858
1069.65	57.4717
1072.55	42.5962
1075.44	33.7632
1078.33	33.2075
1081.22	18.6919
1084.12	19.0312
1087.01	19.1143
1089.9	8.56348
1092.8	13.1089
1095.69	14.6445
1098.58	16.208
1101.47	9.95703
1104.37	9.91504
1107.26	14.5264
1110.15	20.459
1113.05	10.8852
1115.94	11.417
1118.83	8.32666
1121.72	2.21143
1124.62	5.10205
1127.51	18.9189
1130.4	12.7832
1133.29	7.57422
1136.19	10.7383
1139.08	24.9077
1141.97	20.958
1144.86	15.5107
1147.76	25.9668
1150.65	18.1489
1153.54	24.5064
1156.43	28.6919
1159.33	22.6421
1162.22	34.3403
1165.11	25.7036
1168.01	33.0527
1170.9	36.4048
1173.79	41.2881
1176.68	27.8789
1179.58	29.2222
1182.47	16.8384
1185.36	38.1938
1188.26	28.5547
1191.15	19.1177
1194.04	21.0332
1196.93	11.1626
1199.83	23.0068
1202.72	12.7188
1205.61	18.1616
1208.5	25.6352
1211.4	22.4121
1214.29	17.2788
1217.18	18.1421
1220.08	2.64746
1222.97	22.0942
1225.86	0.141602
1228.75	0.696777
1231.64	9.7251
1234.54	14.7554
1237.43	11.6382
1240.32	13.6221
1243.22	15.5259
1246.11	8.10449
1249	13.2905
1251.89	1.70459
1254.79	19.5166
1257.68	17.0142
1260.57	22.6997
1263.46	8.22656
1266.36	17.8086
1269.25	17.8633
1272.14	11.5171
1275.04	13.2656
1277.93	6.17529
1280.82	3.68115
