Measurement: Raman, 532 nm, unoriented, Raman Data Processed
Mineral: Grimselite
Rruff sample: R141028
Ideal chemistry: K_3_Na(U^6+^O_2_)(CO_3_)_3_H_2_O
Locality: Rovnost Mine, Jáchymov, Krušné Hory Mts, Karlovy Vary, Bohemia, Czech Republic
Source: William W. Pinch
Description: Radial aggregate of light or greenish yellow bladed crystals
Raman shift (cm-1)	intensity
158.044	0
160.936	81.29
163.829	230.203
166.722	311.525
169.614	323.017
172.507	273.075
175.4	201.31
178.293	138.967
181.185	137.361
184.078	155.559
186.971	132.288
189.863	97.0718
192.756	57.3035
195.649	25.4744
198.542	10.4514
201.434	6.57349
204.327	9.94702
207.22	13.2705
210.112	18.9111
213.005	4.48315
215.898	19.4744
218.79	75.3323
221.683	140.497
224.576	216.47
227.469	300.221
230.361	422.711
233.254	558.493
236.147	719.061
239.039	905.968
241.932	1092.87
244.825	1271.31
247.717	1274.33
250.61	1101.53
253.503	981.565
256.396	979.068
259.288	1053.75
262.181	1154.52
265.074	1087.13
267.966	856.821
270.859	668.901
273.752	588.991
276.644	595.026
279.537	590.693
282.43	555.811
285.322	481.416
288.215	363.596
291.108	262.8
294.001	189.872
296.893	151.441
299.786	129.441
302.679	113.317
305.571	95.177
308.464	84.761
311.357	80.5942
314.25	66.0523
317.142	52.9797
320.035	60.0503
322.928	32.3359
325.82	22.147
328.713	10.3835
331.606	14.2859
334.498	8.04541
337.391	0.985596
340.284	3.35962
343.176	1.55493
346.069	3.85815
348.962	3.68799
351.855	0.430176
354.747	1.3147
357.64	0.351074
360.533	1.09424
363.425	2.27881
366.318	2.2063
369.211	6.92529
372.103	3.51904
374.996	4.29102
377.889	4.35986
380.782	7.18921
383.674	5.48438
386.567	11.7009
389.46	18.8882
392.352	13.877
395.245	24.1262
398.138	18.5073
401.031	8.84668
403.923	9.69849
406.816	0.586914
409.709	2.74976
412.601	5.22705
415.494	10.1697
418.387	8.16455
421.279	17.5513
424.172	1.84546
427.065	10.5857
429.957	2.96509
432.85	10.2307
435.743	11.0247
438.636	0.150879
441.528	4.59521
444.421	5.79785
447.314	10.9939
450.206	12.0102
453.099	8.85718
455.992	17.1177
458.885	15.365
461.777	16.0911
464.67	8.07398
467.563	3.11231
470.455	12.051
473.348	2.99438
476.241	2.23071
479.133	6.6167
482.026	5.30176
484.919	2.03638
487.812	3.77026
490.704	7.97095
493.597	7.4812
496.49	6.91186
499.382	0.661133
502.275	7.12964
505.168	13.0588
508.06	5.23315
510.953	12.2573
513.846	5.68213
516.739	12.1621
519.631	5.83594
522.524	4.10962
525.417	1.59253
528.309	8.5044
531.202	8.49585
534.095	13.6157
536.987	2.30981
539.88	10.4885
542.773	13.6914
545.665	5.71753
548.558	8.3623
551.451	2.07788
554.344	14.7495
557.236	18.3467
560.129	16.0945
563.022	12.1773
565.914	9.64966
568.807	4.16455
571.7	9.02515
574.592	13.8665
577.485	14.5806
580.378	12.3132
583.271	12.3105
586.163	8.18945
589.056	14.5967
591.949	5.97754
594.841	4.58081
597.734	8.82373
600.627	15.6831
603.519	9.93213
606.412	10.396
609.305	10.886
612.198	11.9517
615.09	21.4485
617.983	16.6084
620.876	11.2537
623.768	10.5649
626.661	13.062
629.554	13.3342
632.447	21.9966
635.339	27.6331
638.232	29.918
641.125	23.8123
644.017	15.8918
646.91	3.22681
649.803	2.35229
652.695	6.38306
655.588	9.36035
658.481	1.80689
661.374	1.86084
664.266	5.37061
667.159	2.39917
670.052	2.83106
672.944	2.98242
675.837	23.2644
678.73	48.678
681.622	130.068
684.515	230.767
687.408	339.946
690.301	207.452
693.193	94.8521
696.086	70.4365
698.979	51.2075
701.871	29.7354
704.764	37.1184
707.657	75.199
710.549	115.288
713.442	207.935
716.335	467.324
719.227	864.264
722.12	1406.26
725.013	2560.75
727.906	3914.84
730.798	4743.54
733.691	1792.22
736.584	566.654
739.476	233.514
742.369	101.992
745.262	40.4751
748.154	20.9097
751.047	8.18652
753.94	10.1489
756.833	17.6223
759.725	18.0811
762.618	5.1416
765.511	13.8081
768.403	18.3345
771.296	32.0166
774.189	57.9019
777.082	86.093
779.974	126.916
782.867	173.605
785.76	238.881
788.652	347.542
791.545	479.487
794.438	665.742
797.33	961.055
800.223	1550.75
803.116	2755.51
806.009	4866.84
808.901	8381.71
811.794	14051
814.687	20529.7
817.579	22497.1
820.472	17397.4
823.365	10938.6
826.257	6492.87
829.15	3969.32
832.043	2539.8
834.936	1710.08
837.828	1152.19
840.721	810.287
843.614	561.565
846.506	397.887
849.399	301.394
852.292	242.747
855.184	193.678
858.077	152.768
860.97	105.311
863.863	62.8665
866.755	34.4832
869.648	9.76245
872.541	1.73291
875.433	9.10938
878.326	5.60229
881.219	10.3438
884.111	17.5476
887.004	14.3716
889.897	26.354
892.79	30.4685
895.682	32.6707
898.575	38.4436
901.468	21.884
904.36	8.59985
907.253	5.74439
910.146	4.52344
913.038	10.2134
915.931	0.063721
918.824	1.94141
921.717	5.5354
924.609	3.41504
927.502	9.21265
930.395	12.2349
933.287	3.36328
936.18	15.0388
939.073	0.943115
941.966	4.11353
944.858	17.9648
947.751	3.89282
950.644	3.53589
953.536	8.19067
956.429	16.3457
959.322	29.5806
962.214	30.4607
965.107	17.2766
968	21.0064
970.893	17.5901
973.785	5.71094
976.678	19.511
979.571	14.0686
982.463	9.47144
985.356	21.9302
988.249	15.083
991.141	12.804
994.034	18.8064
996.927	5.07715
999.819	11.2685
1002.71	10.3677
1005.61	14.9841
1008.5	11.4602
1011.39	10.2744
1014.28	8.99585
1017.18	18.9492
1020.07	6.00342
1022.96	9.08545
1025.85	5.3501
1028.75	9.45996
1031.64	7.30933
1034.53	4.73633
1037.42	0.19873
1040.32	11.4226
1043.21	34.6394
1046.1	47.3232
1048.99	76.7573
1051.89	162.66
1054.78	304.485
1057.67	487.273
1060.57	855.638
1063.46	1215.92
1066.35	778.152
1069.24	273.244
1072.14	122.039
1075.03	71.9802
1077.92	54.9692
1080.82	38.6086
1083.71	40.856
1086.6	51.1365
1089.49	37.8935
1092.39	31.0781
1095.28	17.8606
1098.17	15.665
1101.06	13.7036
1103.96	23.7959
1106.85	28.5483
1109.74	52.9717
1112.63	53.0772
1115.53	39.4148
1118.42	24.2485
1121.31	11.5398
1124.21	1.63281
1127.1	2.19629
1129.99	3.75757
1132.88	0.461182
1135.78	9.62329
1138.67	6.25122
1141.56	4.90161
1144.45	4.62158
1147.35	3.4978
1150.24	10.3523
1153.13	6.97119
1156.03	8.54834
1158.92	16.9895
1161.81	14.7918
1164.7	21.1523
1167.6	10.8457
1170.49	22.9338
1173.38	13.9434
1176.27	22.8867
1179.17	21.1995
1182.06	26.9092
1184.95	43.2361
1187.85	39.2505
1190.74	36.2749
1193.63	25.5791
1196.52	27.0889
1199.42	17.374
1202.31	17.4214
1205.2	15.8643
1208.09	13.1655
1210.99	30.6733
1213.88	22.2646
1216.77	15.3379
1219.66	25.5596
1222.56	36.4751
1225.45	44.9053
1228.34	27.6939
1231.24	36.0166
1234.13	22.3926
1237.02	25.6279
1239.91	29.0708
1242.81	20.3877
1245.7	16.1245
1248.59	35.7446
1251.48	33.3081
1254.38	29.9824
1257.27	39.1431
1260.16	44.5527
1263.06	27.8359
1265.95	30.0195
1268.84	19.6348
1271.73	14.2573
1274.63	0.480469
1277.52	4.06885
1280.41	16.1885
1283.3	16.8398
1286.2	28.126
1289.09	32.4839
1291.98	23.5776
1294.88	4.87549
1297.77	1.63184
1300.66	0
