Measurement: Raman, 780 nm, unoriented, Raman Data Processed
Mineral: Holtstamite
Rruff sample: R170001
Ideal chemistry: Ca_3_Al_2_(SiO_4_)_2_(OH)_4_
Locality: Wessels mine, Kalahari manganese field, South Africa
Source: Paul Botha
Description: Yellow to brownish-yellow granular crystals, associate with Mn-rich vesuvianite, calcite, and henritermierite
Raman shift (cm-1)	intensity
133.383	0
136.276	3.36144
139.168	3.31648
142.061	2.59331
144.954	6.77377
147.847	11.2551
150.739	18.7359
153.632	29.7752
156.525	21.7057
159.417	11.0243
162.31	10.424
165.203	9.10001
168.096	9.97167
170.988	7.53847
173.881	6.79029
176.774	9.10823
179.666	9.84143
182.559	7.10422
185.452	1.65769
188.345	0.95433
191.237	2.04861
194.13	0.71022
197.023	1.6176
199.915	1.88317
202.808	4.72235
205.701	6.54971
208.593	7.30399
211.486	7.59664
214.379	7.90588
217.272	7.63908
220.164	6.53217
223.057	6.79674
225.95	7.63501
228.842	9.74926
231.735	11.399
234.628	14.9159
237.52	19.4539
240.413	23.0599
243.306	27.4768
246.198	28.4232
249.091	29.0508
251.984	30.8373
254.877	32.9872
257.769	35.3967
260.662	37.066
263.555	36.8524
266.447	33.9415
269.34	30.2695
272.233	27.7862
275.125	24.0598
278.018	20.1876
280.911	16.597
283.804	11.6435
286.696	6.44243
289.589	4.70151
292.482	2.07166
295.374	2.09158
298.267	1.06248
301.16	2.22983
304.053	1.71635
306.945	2.78104
309.838	2.99621
312.731	2.9015
315.623	2.26424
318.516	1.61881
321.409	0.888618
324.301	0.317497
327.194	0.265381
330.087	0.477295
332.979	0.213417
335.872	0.447296
338.765	1.342
341.658	3.49654
344.55	4.90025
347.443	6.62621
350.336	7.58192
353.228	9.04446
356.121	9.31955
359.014	10.6416
361.906	12.386
364.799	14.6032
367.692	15.8697
370.585	16.4472
373.477	16.6937
376.37	16.632
379.263	16.4469
382.155	16.2873
385.048	16.2617
387.941	15.4592
390.834	14.8628
393.726	11.5872
396.619	8.48564
399.512	5.84578
402.404	3.80294
405.297	2.61333
408.19	2.36714
411.082	1.86372
413.975	0.086494
416.868	1.1593
419.76	1.53988
422.653	0.900772
425.546	1.38234
428.439	0.333271
431.331	0.2131
434.224	2.25379
437.117	4.49608
440.01	6.98457
442.902	9.86352
445.795	11.5726
448.688	11.2152
451.58	9.34248
454.473	8.60973
457.366	7.32789
460.258	7.46609
463.151	7.28799
466.044	6.49317
468.937	5.73995
471.829	5.24991
474.722	4.59596
477.615	5.65259
480.507	8.7746
483.4	11.0566
486.293	15.1671
489.185	20.0367
492.078	25.691
494.971	34.466
497.863	47.4271
500.756	62.3187
503.649	80.9406
506.542	100.469
509.434	118.519
512.327	123.591
515.22	105.998
518.112	77.5029
521.005	50.8083
523.898	33.0088
526.79	20.9616
529.683	13.8378
532.576	8.3597
535.469	5.78876
538.361	4.26822
541.254	3.2903
544.147	3.8193
547.039	4.33482
549.932	6.35162
552.825	6.57875
555.717	8.40734
558.61	11.4193
561.503	14.7985
564.396	21.7288
567.288	30.509
570.181	41.626
573.074	53.4247
575.966	59.5009
578.859	57.1575
581.752	43.2965
584.644	28.1152
587.537	15.8276
590.43	7.98312
593.323	4.62862
596.215	1.42148
599.108	0.499802
602.001	1.19082
604.893	1.53963
607.786	0.834999
610.679	0.455723
613.572	0.025146
616.464	0.559433
619.357	1.72314
622.25	3.42563
625.142	4.91882
628.035	6.48614
630.928	7.46916
633.82	8.17345
636.713	8.55388
639.606	7.38818
642.499	6.29673
645.391	5.05218
648.284	5.04871
651.177	4.23124
654.069	4.14482
656.962	3.29178
659.855	2.51416
662.747	1.20056
665.64	1.74825
668.533	1.58696
671.426	1.71522
674.318	1.10972
677.211	0.586098
680.104	0.832561
682.996	1.04988
685.889	0.970215
688.782	1.0301
691.674	0.291321
694.567	0.729008
697.46	0.10149
700.352	0.468594
703.245	1.23718
706.138	0.746304
709.031	2.05527
711.923	1.9202
714.816	2.53739
717.709	0.824963
720.601	0.831818
723.494	1.64715
726.387	0.895779
729.279	0.812061
732.172	0.806568
735.065	0.588081
737.958	0.936832
740.85	0.722504
743.743	0.555374
746.636	0.188656
749.528	0.158932
752.421	0.353168
755.314	0.268017
758.207	0.247681
761.099	0.040428
763.992	0.383995
766.885	0.535873
769.777	0.239021
772.67	0.481785
775.563	0.191811
778.455	0.535557
781.348	0.705559
784.241	1.15331
787.134	0.864609
790.026	1.05249
792.919	1.881
795.812	1.92157
798.704	1.99978
801.597	2.20773
804.49	3.52644
807.383	3.97902
810.275	5.33531
813.168	6.24493
816.061	8.21407
818.953	8.82883
821.846	10.651
824.739	11.242
827.631	12.7456
830.524	14.6503
833.417	16.3818
836.309	18.661
839.202	20.7235
842.095	23.403
844.988	25.9389
847.88	25.7231
850.773	26.5646
853.666	27.1466
856.558	28.0745
859.451	28.615
862.344	28.1606
865.236	28.5455
868.129	25.871
871.022	23.4243
873.915	20.236
876.807	16.6284
879.7	13.5351
882.593	11.8789
885.485	9.17948
888.378	7.91198
891.271	5.37175
894.163	5.42276
897.056	4.23464
899.949	4.06886
902.842	3.17107
905.734	2.59415
908.627	1.81035
911.52	1.09343
914.412	2.71593
917.305	2.29
920.198	3.80234
923.091	5.5483
925.983	7.54987
928.876	6.11723
931.769	5.54871
934.661	4.38701
937.554	2.6283
940.447	2.01708
943.339	2.28638
946.232	0.75407
949.125	0.328045
952.018	0.431545
954.91	0.05061
957.803	0.236565
960.696	0.161339
963.588	0.492477
966.481	0.200115
969.374	0.323032
972.266	0.061214
975.159	0.942699
978.052	1.24277
980.945	1.65378
983.837	1.38618
986.73	1.82917
989.623	1.88793
992.515	1.48672
995.408	0.844738
998.301	0.788227
1001.19	1.32864
1004.09	1.30013
1006.98	0.508289
1009.87	1.23161
1012.76	0.549744
1015.66	1.17679
1018.55	0.404995
1021.44	1.14482
1024.34	0.741047
1027.23	0.204041
1030.12	0.71785
1033.01	0.998436
1035.91	1.13077
1038.8	1.15751
1041.69	1.29247
1044.58	0.874245
1047.48	0.940239
1050.37	0.98111
1053.26	1.52337
1056.15	0.554573
1059.05	1.28715
1061.94	0.712753
1064.83	1.2172
1067.73	1.0506
1070.62	0.884335
1073.51	0.282921
1076.4	0.684055
1079.3	1.1316
1082.19	2.41214
1085.08	6.04417
1087.97	2.33412
1090.87	0.475357
1093.76	0.758698
1096.65	0.885963
1099.55	0.084476
1102.44	0.375492
1105.33	0.685951
1108.22	0.19952
1111.12	0.126308
1114.01	0.103905
1116.9	0.398666
1119.79	0.538082
1122.69	0.383663
1125.58	0.282696
1128.47	0.476051
1131.37	0.347801
1134.26	0.41732
1137.15	0.181648
1140.04	0.291447
1142.94	0.044777
1145.83	0.611267
1148.72	0.426796
1151.61	0.311207
1154.51	1.2147
1157.4	0.975353
1160.29	1.25827
1163.18	0.902756
1166.08	0.46838
1168.97	0.853924
1171.86	1.21076
1174.76	0.393356
1177.65	0.584885
1180.54	0.139332
1183.43	0.580273
1186.33	0.741325
1189.22	0.747772
1192.11	0.059811
1195	0.222858
1197.9	0.590263
1200.79	0.341461
1203.68	0.74844
1206.58	0.401619
1209.47	0.944706
1212.36	0.452763
1215.25	0.853996
1218.15	0.539669
1221.04	0.621346
1223.93	0.477703
1226.82	0.628189
1229.72	0.10302
1232.61	0.844322
1235.5	0.465729
1238.39	0.980186
1241.29	0.147591
1244.18	0.468811
1247.07	0.099186
1249.97	0.047749
1252.86	0.390472
1255.75	0.721642
1258.64	0.012123
1261.54	0.831306
1264.43	0.691257
1267.32	0.30759
1270.21	0.135109
1273.11	1.45925
1276	0.958073
1278.89	0.622871
1281.79	0.074848
