Measurement: Raman, 532 nm, unoriented, Raman Data Processed
Mineral: Holtstamite
Rruff sample: R170001
Ideal chemistry: Ca_3_Al_2_(SiO_4_)_2_(OH)_4_
Locality: Wessels mine, Kalahari manganese field, South Africa
Source: Paul Botha
Description: Yellow to brownish-yellow granular crystals, associate with Mn-rich vesuvianite, calcite, and henritermierite
Raman shift (cm-1)	intensity
133.938	0
137.313	2.53516
140.687	15.1723
144.062	13.2296
147.437	18.395
150.812	26.0328
154.187	36.7456
157.561	36.4674
160.936	17.5858
164.311	14.1762
167.686	11.2022
171.061	11.3971
174.436	10.5702
177.81	10.0246
181.185	8.4476
184.56	5.88281
187.935	1.10457
191.31	1.14233
194.685	3.43024
198.059	0.048752
201.434	0.28952
204.809	0.092239
208.184	2.41113
211.559	4.44795
214.933	5.20288
218.308	4.49635
221.683	2.01785
225.058	4.24504
228.433	4.76355
231.808	6.37402
235.182	10.2592
238.557	12.8309
241.932	17.6869
245.307	24.5729
248.682	26.7578
252.056	31.3519
255.431	36.2406
258.806	40.3364
262.181	41.2784
265.556	35.606
268.93	34.4406
272.305	31.2668
275.68	27.4873
279.055	21.3388
282.43	14.3539
285.805	8.7637
289.179	5.59
292.554	2.60274
295.929	2.07317
299.304	1.37328
302.679	2.73308
306.053	5.6041
309.428	4.50975
312.803	4.20987
316.178	3.00414
319.553	2.41324
322.928	0.406418
326.302	1.73174
329.677	0.081161
333.052	0.050934
336.427	2.10184
339.802	3.92288
343.176	7.63673
346.551	12.1501
349.926	13.0478
353.301	15.0328
356.676	14.9777
360.051	16.7091
363.425	19.4812
366.8	23.7111
370.175	26.0864
373.55	25.839
376.925	26.7179
380.3	24.8154
383.674	24.2532
387.049	24.5267
390.424	22.1687
393.799	19.0516
397.174	16.1465
400.548	11.4491
403.923	9.12671
407.298	5.6102
410.673	3.71423
414.048	1.12543
417.423	0.623077
420.797	2.02835
424.172	3.52829
427.547	2.35486
430.922	1.21112
434.296	1.51657
437.671	3.23431
441.046	8.40646
444.421	13.1907
447.796	12.1701
451.171	9.32529
454.545	6.55985
457.92	5.80627
461.295	5.85901
464.67	6.72147
468.045	8.35111
471.42	8.07965
474.794	11.8265
478.169	18.3499
481.544	26.433
484.919	38.1998
488.294	48.7484
491.668	64.4744
495.043	88.2734
498.418	126.326
501.793	176.955
505.168	228.409
508.543	279.639
511.917	302.252
515.292	273.051
518.667	202.767
522.042	135.064
525.417	90.1271
528.791	59.7436
532.166	41.7408
535.541	31.8326
538.916	26.3551
542.291	24.7611
545.665	21.7961
549.04	22.08
552.415	24.7372
555.79	29.4822
559.165	37.9216
562.54	53.2259
565.914	76.8822
569.289	107.62
572.664	139.037
576.039	158.181
579.414	148.946
582.788	110.922
586.163	67.817
589.538	37.6376
592.913	18.9729
596.288	7.50577
599.663	2.44028
603.037	1.39831
606.412	4.64954
609.787	1.47025
613.162	1.44028
616.537	0.56189
619.912	0.166229
623.286	4.71149
626.661	4.70627
630.036	4.49417
633.411	4.74646
636.786	7.07214
640.16	7.36118
643.535	6.33533
646.91	4.24799
650.285	3.85403
653.66	4.43835
657.034	5.60956
660.409	5.44931
663.784	2.29785
667.159	2.40576
670.534	3.76999
673.909	4.949
677.283	1.40533
680.658	2.02045
684.033	4.12
687.408	4.54889
690.783	4.83127
694.158	2.7724
697.532	3.85877
700.907	2.00488
704.282	2.99994
707.657	4.06616
711.032	5.97702
714.406	5.69916
717.781	3.22311
721.156	5.08804
724.531	2.9093
727.906	0.656555
731.28	2.11948
734.655	4.4119
738.03	4.15301
741.405	1.02325
744.78	0.422729
748.154	0.811707
751.529	0.886719
754.904	1.46747
758.279	1.43463
761.654	3.72345
765.029	1.96631
768.403	1.93512
771.778	1.19013
775.153	0.652222
778.528	0.677185
781.903	0.843872
785.278	2.27173
788.652	3.34815
792.027	5.23877
795.402	4.73798
798.777	7.3056
802.152	6.83142
805.526	7.22937
808.901	9.64447
812.276	15.8312
815.651	17.4041
819.026	24.4216
822.4	23.5996
825.775	27.6219
829.15	31.9564
832.525	39.496
835.9	45.1965
839.275	49.943
842.649	54.5707
846.024	58.8054
849.399	58.4159
852.774	64.9863
856.149	68.8146
859.524	68.5324
862.898	70.0786
866.273	68.1375
869.648	67.8247
873.023	57.132
876.398	44.5466
879.773	36.0889
883.147	28.4486
886.522	22.9453
889.897	16.4247
893.272	11.493
896.646	6.28888
900.021	5.57935
903.396	5.65521
906.771	4.84711
910.146	3.7207
913.521	6.18756
916.895	4.1817
920.27	10.0779
923.645	9.12885
927.02	12.507
930.395	15.6212
933.769	11.8716
937.144	8.74713
940.519	5.40826
943.894	3.37952
947.269	0.143127
950.644	0.703796
954.018	0.072937
957.393	2.31366
960.768	1.00208
964.143	1.51007
967.518	2.93158
970.893	0.290283
974.267	3.61536
977.642	6.01642
981.017	2.50134
984.392	2.34815
987.767	2.20404
991.141	6.17139
994.516	8.29584
997.891	5.26978
1001.27	7.81305
1004.64	9.00476
1008.02	9.43866
1011.39	3.06476
1014.76	1.71741
1018.14	1.33154
1021.51	0.743652
1024.89	3.27332
1028.26	3.31708
1031.64	3.25861
1035.01	6.24793
1038.39	5.62921
1041.76	7.19879
1045.14	4.73712
1048.51	3.8526
1051.89	5.75476
1055.26	8.66956
1058.64	10.6197
1062.01	9.34741
1065.39	8.19281
1068.76	8.20319
1072.14	7.50561
1075.51	5.98163
1078.89	10.0102
1082.26	6.93341
1085.64	7.7348
1089.01	3.98883
1092.39	3.65015
1095.76	5.96021
1099.14	5.77258
1102.51	10.0618
1105.88	4.55347
1109.26	4.08899
1112.63	2.23804
1116.01	2.12097
1119.38	7.37573
1122.76	3.7063
1126.13	5.04126
1129.51	1.7959
1132.88	4.6571
1136.26	6.68189
1139.63	8.68567
1143.01	2.77576
1146.38	5.30652
1149.76	3.5083
1153.13	3.55627
1156.51	3.55615
1159.88	4.34448
1163.26	5.40747
1166.63	3.64197
1170.01	1.68848
1173.38	7.16833
1176.76	8.46289
1180.13	4.70483
1183.51	1.94507
1186.88	7.40259
1190.26	9.49011
1193.63	6.85791
1197.01	8.44849
1200.38	6.40527
1203.76	6.62634
1207.13	1.00427
1210.51	4.34692
1213.88	12.8391
1217.25	6.84436
1220.63	5.64575
1224	2.29419
1227.38	1.12256
1230.75	1.90747
1234.13	1.24548
1237.5	5.3064
1240.88	1.37976
1244.25	10.0768
1247.63	9.27783
1251	7.06689
1254.38	5.94543
1257.75	10.4117
1261.13	13.3522
1264.5	5.60998
1267.88	4.37903
1271.25	3.06018
1274.63	0.724365
1278	3.43616
1281.38	6.84998
1284.75	5.52905
1288.12	2.9032
1291.5	5.14685
1294.88	3.30469
1298.25	8.16687
