Measurement: Raman, 532 nm, unoriented, Raman Data Processed
Mineral: Hydromagnesite
Rruff sample: R220007
Ideal chemistry: Mg_5_(CO_3_)_4_(OH)_2_4H_2_O
Locality: Correc d'en Llinassos, Oms, Céret, Pyrénées-Orientales, Occitanie, France
Source: Joan Rosell-Riba, Jordi Ibáñez (Geo3Bcn-CSIC), Tariq Jawhari (CCiTUB)
Description: White spherical aggregates, SEM-EDS analysis indicates only Mg
Raman shift (cm-1)	intensity
66.9562	0
72.4959	10.8125
78.0325	23.1477
83.5678	38.4172
89.0978	57.2469
94.6245	53.582
100.148	25.6875
105.668	10.3714
111.185	2.78678
116.699	2.6931
122.207	16.9818
127.714	10.1822
133.218	1.72015
138.717	2.834
144.214	21.8565
149.706	28.0384
155.197	18.4924
160.683	5.82904
166.167	9.04481
171.646	14.9196
177.122	15.5826
182.595	23.9945
188.064	22.6897
193.531	15.3278
198.994	19.3969
204.454	31.941
209.91	20.1496
215.364	5.33481
220.814	6.15405
226.259	11.9198
231.703	28.8629
237.141	26.7808
242.579	21.9182
248.011	26.7987
253.442	17.6964
258.868	11.4159
264.291	12.9267
269.712	12.7985
275.129	7.6121
280.542	4.19247
285.952	3.98775
291.359	2.03905
296.762	0.689892
302.163	2.11509
307.558	1.6044
312.952	1.60558
318.343	3.58011
323.729	5.66672
329.114	8.01435
334.494	5.90319
339.872	2.5676
345.245	0.86961
350.616	0.690121
355.985	0.690178
361.349	0.482281
366.71	1.0278
372.067	0.610546
377.422	0.259472
382.773	0.170429
388.122	0.256798
393.467	1.77815
398.807	1.70293
404.146	2.26608
409.482	1.92744
414.813	2.92911
420.143	2.6993
425.467	4.68354
430.791	6.36972
436.109	5.85926
441.425	7.18186
446.737	4.46363
452.046	7.16051
457.354	6.65014
462.657	7.38332
467.955	9.51104
473.252	8.53355
478.546	7.97583
483.837	8.66312
489.125	6.54556
494.408	5.17377
499.689	5.17212
504.966	4.76615
510.241	4.25321
515.512	4.91035
520.779	2.40756
526.046	4.15636
531.307	1.79656
536.566	2.97203
541.821	3.01484
547.073	2.55021
552.323	3.20183
557.569	3.12347
562.812	4.16033
568.05	3.44936
573.288	4.40287
578.522	4.23008
583.751	4.80708
588.979	5.13838
594.202	3.31913
599.423	3.61601
604.642	2.90247
609.856	1.74459
615.067	3.35808
620.276	3.20927
625.481	1.5867
630.683	2.02532
635.882	3.43295
641.079	3.52086
646.272	3.38228
651.461	5.29127
656.648	6.96668
661.832	7.03973
667.012	8.96751
672.19	7.16565
677.364	7.01148
682.535	8.65508
687.704	7.39653
692.869	8.76903
698.031	11.0827
703.19	10.6355
708.346	12.9747
713.498	12.7142
718.648	13.2032
723.794	14.4455
728.938	17.8878
734.079	15.1143
739.215	12.1988
744.351	8.85314
749.481	8.51682
754.611	9.86404
759.735	12.6721
764.857	9.55574
769.978	7.05067
775.094	5.10131
780.207	3.48524
785.317	3.68335
790.424	4.21103
795.527	2.5676
800.628	2.15191
805.727	1.17392
810.822	2.76583
815.913	3.18255
821.003	0.427494
826.088	1.24834
831.172	1.96871
836.251	1.76672
841.328	1.33949
846.401	1.71449
851.472	1.11506
856.54	2.04138
861.605	0.319008
866.667	2.52253
871.726	1.02664
876.782	0.656414
881.836	1.41201
886.885	2.09413
891.933	0.197754
896.976	0.686012
902.018	0.045151
907.055	0.779823
912.09	0.109951
917.123	0.050098
922.152	0.515869
927.178	0.132332
932.201	0.397587
937.222	0.53825
942.239	0.725471
947.252	1.08915
952.264	1.4287
957.273	1.71931
962.278	1.63622
967.281	0.729515
972.28	1.27405
977.278	1.87295
982.271	2.44452
987.261	3.36689
992.249	2.41497
997.235	0.488708
1002.22	0.211937
1007.2	1.89848
1012.17	2.14867
1017.14	1.55422
1022.12	0.206001
1027.08	0.857655
1032.05	1.72731
1037.01	2.8872
1041.97	2.19581
1046.92	4.13283
1051.88	4.2369
1056.83	4.64066
1061.77	6.10323
1066.72	4.10801
1071.66	5.68586
1076.6	6.82217
1081.53	8.37917
1086.47	11.3095
1091.4	15.5124
1096.32	21.3141
1101.25	24.7309
1106.17	33.085
1111.09	57.2242
1116	165.271
1120.91	337.955
1125.82	186.487
1130.73	53.4519
1135.63	21.0402
1140.54	10.899
1145.43	7.17213
1150.33	5.29504
1155.22	5.07964
1160.11	2.98947
1165	1.03627
1169.88	1.92154
1174.76	2.30697
1179.64	0.867523
1184.52	0.153275
1189.39	1.41421
1194.26	1.52537
1199.13	0.096344
1203.99	1.51495
1208.85	0.001457
1213.71	1.11305
1218.56	0.424847
1223.42	0.261864
1228.27	0.598965
1233.12	0.489521
1237.96	0.371052
1242.8	0.106701
1247.64	0.81749
1252.48	0.472324
1257.31	1.96183
1262.14	1.47121
1266.97	0.430908
1271.79	0.115829
1276.61	0.849316
1281.43	0.459099
1286.25	0.792843
1291.06	0.402
1295.87	0.061489
1300.68	0.820652
1305.49	0.5056
1310.29	0.283905
1315.09	1.30257
1319.89	0.359932
1324.68	0.802578
1329.47	0.790592
1334.26	0.853954
1339.05	2.16764
1343.83	1.18205
1348.61	1.49694
1353.39	0.262638
1358.16	0.927994
1362.93	1.49418
1367.7	0.782639
1372.47	2.75005
1377.23	2.04337
1381.99	1.68807
1386.75	1.85879
1391.51	1.27065
1396.26	2.46724
1401.01	2.31053
1405.76	1.88416
1410.5	2.58259
1415.25	3.10706
1419.99	2.16446
1424.72	1.97697
1429.45	1.62804
1434.19	3.29573
1438.91	3.77305
1443.64	6.37183
1448.36	6.19651
1453.08	7.97607
1457.8	6.58145
1462.52	6.05682
1467.23	4.53836
1471.94	4.0215
1476.64	3.25566
1481.35	4.54084
1486.05	5.84086
1490.75	3.83104
1495.44	4.54445
1500.14	3.53398
1504.83	2.07457
1509.51	3.07297
1514.2	4.19093
1518.88	4.75539
1523.56	6.001
1528.24	5.20905
1532.91	1.78259
1537.58	3.3327
1542.25	2.2244
1546.92	2.177
1551.58	1.60744
1556.24	1.39053
1560.9	2.37624
1565.56	2.07202
1570.21	2.6506
1574.86	1.70442
1579.51	2.12473
1584.15	4.43834
1588.8	4.06237
1593.44	2.17623
1598.07	2.51917
1602.71	2.09247
1607.34	3.6688
1611.97	3.94716
1616.6	4.00392
1621.22	2.1873
1625.84	2.5988
1630.46	2.91308
1635.08	1.88036
1639.69	1.67578
1644.3	1.42473
1648.91	1.92658
1653.51	2.08096
1658.12	3.11312
1662.72	3.27285
1667.32	2.08519
1671.91	2.69925
1676.5	2.53682
1681.09	2.29972
1685.68	1.16514
1690.26	2.68513
1694.85	2.08492
1699.43	2.13967
1704	1.59963
1708.58	2.78999
1713.15	1.58591
1717.72	2.31265
1722.28	1.84566
1726.85	3.01069
1731.41	1.40966
1735.97	1.34448
1740.53	0.791687
1745.08	0.246758
1749.63	0.667931
1754.18	1.75225
1758.72	2.92428
1763.27	1.10248
1767.81	2.11698
1772.35	1.96875
1776.88	0
