Measurement: Raman, 785 nm, unoriented, Raman Data Processed
Mineral: Jarosite
Rruff sample: X050105
Ideal chemistry: KFe^3+^_3_(S^6+^O_4_)_2_(OH)_6_
Locality: Barium Queen mine, Barstow, California, USA
Source: Caltech
Raman shift (cm-1)	intensity
206	0
210	8.237
214	77.808
218	152.912
222	177.208
226	103.737
230	37.704
234	11.234
238	1.11
242	0.179
246	1.392
250	0.159
254	4.28
258	3.974
262	5.284
266	2.112
270	0.416
274	0.034
278	1.401
282	4.281
286	12.584
290	29.039
294	48.367
298	62.651
302	55.071
306	27.307
310	9.945
314	3.651
318	0.598
322	0.277
326	0.568
330	2.679
334	0.402
338	2.629
342	8.868
346	16.612
350	26.139
354	24.565
358	14.417
362	5.572
366	1.217
370	0.185
374	0.341
378	0.515
382	0.07
386	1.217
390	2.819
394	2.951
398	3.357
402	4.111
406	4.285
410	2.819
414	0.557
418	0.535
422	3.349
426	26.022
430	56.013
434	54.677
438	31.711
442	14.395
446	10.565
450	24.259
454	34.234
458	20.401
462	4.127
466	0.625
470	1.21
474	0.762
478	3.384
482	4.959
486	4.071
490	2.563
494	1.729
498	1.712
502	3.024
506	1.495
510	0.575
514	0.536
518	0.299
522	2.262
526	0.127
530	0.778
534	1.362
538	0.775
542	0.011
546	1.255
550	1.055
554	2.321
558	4.928
562	6.201
566	9.661
570	11.713
574	9.248
578	6.777
582	3.258
586	1.213
590	0.198
594	0.133
598	0.115
602	0.418
606	0.242
610	2.046
614	2.301
618	8.256
622	29.523
626	31.003
630	10.692
634	2.368
638	3.001
642	2.341
646	0.237
650	0.412
654	1.15
658	0.223
662	1.986
666	0.259
670	0.946
674	0.749
678	1.098
682	0.427
686	1.163
690	0.39
694	0.578
698	0.693
702	0.429
706	1.446
710	0.342
714	0.145
718	1.369
722	1.029
726	1.435
730	0.003
734	0.404
738	1.124
742	1.716
746	0.841
750	0.353
754	0.277
758	0.366
762	0.618
766	0.122
770	0.494
774	1.893
778	1.296
782	0.353
786	1.125
790	0.918
794	1.07
798	0.002
802	0.488
806	0.03
810	0.739
814	1.139
818	1.326
822	2.575
826	0.371
830	0.865
834	1.576
838	1.168
842	0.763
846	0.296
850	0.371
854	0.528
858	0.405
862	0.209
866	0.506
870	0.833
874	0.434
878	1.479
882	0.621
886	0.305
890	0.332
894	1.836
898	0.774
902	0.487
906	0.365
910	0.34
914	1.172
918	0.696
922	0.476
926	1.025
930	0.737
934	1.274
938	1.456
942	0.909
946	0.282
950	0.2
954	0.977
958	1.313
962	0.924
966	0.988
970	1.2
974	0.953
978	0.213
982	0.131
986	0.169
990	0.791
994	4.533
998	14.616
1002	49.896
1006	68.631
1010	33.552
1014	9.924
1018	2.849
1022	1.159
1026	0.312
1030	0.173
1034	1.122
1038	0.524
1042	0.856
1046	1.291
1050	0.94
1054	1.433
1058	1.651
1062	1.264
1066	1.356
1070	0.572
1074	0.119
1078	0.27
1082	1.092
1086	5.779
1090	16.809
1094	32.547
1098	41.347
1102	31.324
1106	17.092
1110	6.624
1114	2.832
1118	0.74
1122	0.298
1126	0.619
1130	0.397
1134	1.06
1138	1.903
1142	1.138
1146	4.743
1150	7.827
1154	7.965
1158	6.975
1162	5.035
1166	2.683
1170	1.631
1174	0.114
1178	0.785
1182	0.674
1186	0.082
1190	0.681
1194	1.102
1198	0.801
1202	1.011
1206	0.399
1210	0.969
1214	1.156
1218	0.898
1222	1.376
1226	0.139
1230	1.019
1234	0.832
1238	1.244
1242	1.556
1246	0.943
1250	1.285
1254	0.121
1258	1.244
1262	0.228
1266	0.501
1270	0.187
1274	0.004
1278	1.251
1282	0.609
1286	0.801
1290	1.048
1294	1.562
1298	0.643
1302	0.272
1306	1.96
1310	0.784
1314	1.141
1318	0.666
1322	0.291
1326	1.178
1330	0.571
1334	0.962
1338	1.255
1342	0.538
1346	0.284
1350	1.438
1354	0.795
1358	1.988
1362	1.126
1366	2.34
1370	1.334
1374	1.593
1378	1.672
1382	1.855
1386	1.984
1390	0.429
1394	1.661
1398	0.284
1402	1.2
1406	1.364
1410	0.739
1414	0.179
1418	0.616
1422	1.045
1426	1.411
1430	1.069
1434	0.979
1438	1.291
1442	1.555
1446	0.54
1450	0.985
1454	1.267
1458	1.435
1462	0.119
1466	1.877
1470	1.278
1474	0.979
1478	0.109
1482	0.171
1486	0.666
1490	0.487
1494	0.942
1498	0.026
