Measurement: Raman, 785 nm, unoriented, Raman Data Processed
Mineral: Jarosite
Rruff sample: X050106
Ideal chemistry: KFe^3+^_3_(S^6+^O_4_)_2_(OH)_6_
Locality: near Calico Hills, Barstow, California, USA
Source: Caltech
Raman shift (cm-1)	intensity
206	0
210	16.302
214	27.493
218	67.511
222	117.547
226	103.039
230	53.923
234	19.24
238	7.068
242	1.333
246	0.308
250	0.431
254	0.449
258	0.612
262	1.365
266	0.928
270	0.072
274	1.289
278	1.194
282	2.04
286	4.899
290	8.686
294	18.061
298	26.799
302	24.275
306	11.48
310	3.309
314	1.523
318	0.122
322	1.77
326	1.119
330	1.786
334	0.904
338	0.808
342	3.041
346	6.079
350	8.8
354	11.371
358	11.755
362	10.893
366	8.292
370	4.421
374	1.398
378	1.621
382	0.208
386	0.373
390	3.823
394	3.424
398	1.817
402	0.971
406	1.51
410	5.699
414	12.179
418	7.241
422	1.498
426	2.772
430	18.054
434	33.13
438	32.049
442	35.068
446	38.56
450	41.091
454	40.01
458	19.182
462	4.1
466	0.513
470	0.198
474	0.166
478	1.729
482	4.197
486	6.357
490	10.137
494	14.553
498	11.944
502	6.154
506	3.144
510	1.613
514	0.322
518	0.257
522	0.729
526	0.975
530	0.452
534	0.144
538	0.422
542	0.157
546	1.766
550	1.551
554	3.343
558	5.53
562	8.499
566	11.49
570	11.586
574	8.788
578	5.605
582	3.377
586	0.308
590	0.363
594	0.38
598	0.12
602	0.586
606	1.565
610	2.241
614	5.049
618	16.436
622	43.673
626	36.088
630	8.341
634	0.137
638	0.212
642	0.504
646	1.491
650	0.673
654	0.981
658	0.208
662	0.076
666	4.745
670	7.826
674	3.491
678	1.13
682	1.035
686	1.882
690	0.198
694	0.467
698	1.114
702	0.049
706	0.236
710	0.331
714	1.063
718	1.042
722	0.773
726	0.428
730	1.085
734	0.106
738	0.337
742	1.028
746	1.03
750	1.026
754	0.778
758	0.922
762	0.293
766	1.431
770	0.946
774	0.155
778	1.449
782	0.034
786	0.97
790	1.325
794	0.708
798	0.584
802	0.488
806	0.077
810	0.372
814	0.823
818	1.159
822	0.63
826	0.294
830	0.66
834	0.125
838	0.615
842	0.152
846	0.445
850	0.211
854	0.197
858	0.596
862	0.305
866	0.488
870	0.796
874	0.151
878	0.49
882	0.866
886	1.101
890	1.373
894	1.148
898	0.725
902	0.023
906	0.22
910	0.409
914	0.603
918	0.173
922	1.534
926	0.535
930	0.958
934	0.494
938	1.123
942	0.081
946	0.128
950	0.361
954	0.603
958	0.819
962	1.08
966	1.345
970	1.347
974	1.093
978	0.228
982	0.013
986	0.477
990	0.49
994	1.787
998	10.262
1002	50.132
1006	137.145
1010	122.799
1014	38.988
1018	9.71
1022	3.322
1026	1.663
1030	0.147
1034	0.234
1038	0.996
1042	0.569
1046	1.763
1050	2.087
1054	2.013
1058	1.974
1062	1.449
1066	1.719
1070	1.681
1074	0.328
1078	0.563
1082	0.302
1086	1.637
1090	7.821
1094	20.241
1098	37.638
1102	49.318
1106	55.667
1110	43.176
1114	18.787
1118	4.888
1122	0.211
1126	0.415
1130	2.912
1134	6.235
1138	3.747
1142	2.529
1146	4.993
1150	9.019
1154	10.581
1158	6.391
1162	3.316
1166	0.17
1170	0.272
1174	0.018
1178	0.544
1182	0.563
1186	1.387
1190	1.333
1194	1.494
1198	0.797
1202	0.46
1206	0.678
1210	1.374
1214	0.396
1218	1.371
1222	1.335
1226	0.34
1230	0.633
1234	0.724
1238	1.588
1242	0.224
1246	1.01
1250	0.985
1254	0.163
1258	0.519
1262	0.636
1266	0.046
1270	0.325
1274	0.107
1278	0.193
1282	1.639
1286	1.401
1290	1.23
1294	1.281
1298	0.335
1302	1.553
1306	1.663
1310	1.508
1314	0.773
1318	1.26
1322	0.596
1326	0.682
1330	0.166
1334	1.441
1338	0.883
1342	0.49
1346	0.216
1350	0.428
1354	0.302
1358	1.131
1362	0.237
1366	1.385
1370	0.475
1374	0.174
1378	0.847
1382	0.304
1386	1.27
1390	0.122
1394	0.628
1398	0.077
1402	1.942
1406	0.759
1410	0.329
1414	0.993
1418	1.843
1422	1.012
1426	0.86
1430	0.042
1434	1.192
1438	1.601
1442	1.045
1446	1.422
1450	0.339
1454	1.641
1458	1.618
1462	0.334
1466	1.546
1470	0.019
1474	0.538
1478	1.331
1482	0.582
1486	0.653
1490	0.347
1494	1.509
1498	0.007
