Measurement: Raman, 780 nm, unoriented, Raman Data Processed
Mineral: Jimkrieghite
Rruff sample: R220012
Ideal chemistry: Ca(C_2_H_3_O_3_)^1-^_2_
Locality: Western end of Pusch Ridge in the Santa Catalina Mountains, north of Tucson, Pima County, Arizona, USA
Source: Warren Lazar
Description: Colorless short prismatic or pseudo-cubic crystals, associated with blue lazaraskeite.
Raman shift (cm-1)	intensity
87.582	0
90.9569	93.5769
94.3317	216.523
97.7065	244.185
101.081	165.482
104.456	50.6597
107.831	22.4135
111.206	87.0733
114.581	35.0226
117.955	11.2455
121.33	15.8048
124.705	53.0047
128.08	84.4283
131.455	152.423
134.829	105.136
138.204	55.4329
141.579	9.02463
144.954	3.10077
148.329	14.3541
151.704	66.2216
155.078	115.84
158.453	80.1567
161.828	31.6437
165.203	11.2432
168.578	2.24257
171.952	2.79384
175.327	15.78
178.702	39.7809
182.077	54.9898
185.452	34.1673
188.827	19.7452
192.201	17.4159
195.576	13.9973
198.951	14.9091
202.326	9.48682
205.701	10.8407
209.076	11.963
212.45	16.7833
215.825	27.6327
219.2	43.8411
222.575	47.9051
225.95	34.4924
229.324	23.8958
232.699	11.5865
236.074	4.0063
239.449	0.716583
242.824	0.062675
246.198	1.09165
249.573	0.862923
252.948	0.152565
256.323	1.94182
259.698	1.77247
263.073	0.327881
266.447	1.52801
269.822	2.30277
273.197	2.12461
276.572	4.43937
279.947	4.90841
283.322	6.41116
286.696	5.20549
290.071	7.27136
293.446	6.87315
296.821	5.01703
300.196	4.87011
303.57	1.70873
306.945	2.74345
310.32	0.889847
313.695	1.7129
317.07	0.22757
320.445	2.69618
323.819	1.11053
327.194	0.542389
330.569	2.13328
333.944	6.19112
337.319	7.76995
340.693	8.98226
344.068	6.34119
347.443	4.53634
350.818	4.30504
354.193	2.39956
357.567	1.76144
360.942	2.43906
364.317	3.82195
367.692	8.67757
371.067	12.1081
374.442	13.8866
377.816	10.2823
381.191	6.45257
384.566	6.48148
387.941	4.40503
391.316	4.47491
394.69	0.887077
398.065	1.25373
401.44	0.466751
404.815	0.537292
408.19	0.252007
411.565	1.12622
414.939	1.22021
418.314	1.55837
421.689	1.49013
425.064	1.88526
428.439	0.174271
431.813	0.903191
435.188	1.01856
438.563	2.65079
441.938	1.47078
445.313	1.68262
448.688	1.09536
452.062	2.17245
455.437	1.17876
458.812	0.156631
462.187	1.13623
465.562	0.151794
468.937	0.106781
472.311	0.059135
475.686	0.128052
479.061	0.68988
482.436	0.42543
485.81	2.15357
489.185	2.03806
492.56	2.76141
495.935	7.17152
499.31	8.58579
502.685	16.6884
506.059	28.6219
509.434	46.4624
512.809	57.6922
516.184	65.587
519.559	116.282
522.933	202.041
526.308	275.257
529.683	222.248
533.058	133.633
536.433	63.6947
539.808	34.0883
543.182	18.6631
546.557	13.2581
549.932	9.6062
553.307	6.47077
556.682	4.98427
560.057	6.67052
563.431	7.13341
566.806	8.85737
570.181	15.2664
573.556	19.6997
576.931	27.7773
580.305	32.4554
583.68	28.214
587.055	19.6032
590.43	13.1289
593.805	7.59727
597.18	2.99662
600.554	1.71049
603.929	1.16606
607.304	0.06826
610.679	1.21838
614.054	1.09962
617.428	0.332672
620.803	0.35376
624.178	0.600471
627.553	1.00394
630.928	0.135994
634.303	2.13874
637.677	2.06074
641.052	3.8324
644.427	6.88224
647.802	8.50061
651.177	11.6239
654.552	13.9284
657.926	13.1007
661.301	14.2538
664.676	11.5926
668.051	10.2863
671.426	7.47892
674.8	6.17902
678.175	7.00185
681.55	6.14764
684.925	10.2771
688.3	12.5447
691.674	11.799
695.049	12.4016
698.424	11.1391
701.799	11.2757
705.174	12.9556
708.548	13.731
711.923	14.4856
715.298	12.6589
718.673	11.5568
722.048	10.9953
725.423	9.3979
728.797	8.03659
732.172	5.21575
735.547	3.84996
738.922	2.55501
742.297	3.09151
745.672	1.91044
749.046	0.310238
752.421	1.52229
755.796	2.89496
759.171	1.22244
762.546	0.12019
765.92	0.477394
769.295	0.213432
772.67	1.01859
776.045	0.623753
779.42	0.030678
782.795	1.50724
786.169	1.06555
789.544	0.793491
792.919	1.4166
796.294	0.546959
799.669	2.42679
803.043	3.09545
806.418	2.14562
809.793	3.99948
813.168	2.21886
816.543	3.4091
819.918	2.91615
823.292	0.069637
826.667	0.725689
830.042	1.10782
833.417	1.02033
836.792	1.36665
840.166	1.36547
843.541	0.078449
846.916	1.14073
850.291	1.35226
853.666	0.520782
857.04	0.992195
860.415	0.113491
863.79	1.39655
867.165	1.44143
870.54	1.42213
873.915	1.35976
877.289	1.26791
880.664	1.44063
884.039	0.018719
887.414	1.89793
890.789	1.628
894.163	3.86464
897.538	4.46
900.913	5.11456
904.288	8.30256
907.663	10.6427
911.038	16.8858
914.412	33.8862
917.787	73.5754
921.162	154.513
924.537	122.733
927.912	59.6472
931.287	62.8353
934.661	95.7212
938.036	186.087
941.411	314.447
944.786	121.662
948.161	39.7922
951.535	17.7378
954.91	8.04302
958.285	5.0524
961.66	2.96673
965.035	1.75617
968.409	0.794018
971.784	1.08582
975.159	1.2245
978.534	1.76701
981.909	0.356529
985.284	1.35324
988.658	1.17334
992.033	3.95142
995.408	5.69409
998.783	7.66214
1002.16	5.05869
1005.53	2.53195
1008.91	1.72399
1012.28	5.88792
1015.66	8.16129
1019.03	2.09595
1022.41	1.99705
1025.78	1.05083
1029.16	1.84693
1032.53	1.04824
1035.91	0.151031
1039.28	0.981197
1042.66	2.15988
1046.03	2.77825
1049.4	4.54802
1052.78	4.84755
1056.15	10.2641
1059.53	12.7961
1062.9	23.9141
1066.28	44.2303
1069.65	54.1911
1073.03	46.333
1076.4	41.277
1079.78	30.7202
1083.15	18.0833
1086.53	11.2295
1089.9	6.86763
1093.28	4.19264
1096.65	2.89225
1100.03	1.96419
1103.4	1.75019
1106.78	1.96353
1110.15	2.29553
1113.53	1.70324
1116.9	0.784657
1120.28	1.43156
1123.65	0.008549
1127.03	2.50166
1130.4	2.25255
1133.78	1.5078
1137.15	1.3852
1140.53	0.740604
1143.9	1.85395
1147.28	0.158703
1150.65	1.75835
1154.03	2.18274
1157.4	0.551338
1160.77	0.146835
1164.15	0.80695
1167.52	2.47325
1170.9	1.45581
1174.27	0.564941
1177.65	0.489342
1181.02	0.880146
1184.4	0.751411
1187.77	0.363144
1191.15	0.908752
1194.52	2.3498
1197.9	0.317001
1201.27	0.095459
1204.65	0.846077
1208.02	2.74316
1211.4	3.12991
1214.77	10.9707
1218.15	17.436
1221.52	41.5998
1224.9	70.4046
1228.27	86.483
1231.64	55.9761
1235.02	30.1419
1238.39	19.6538
1241.77	11.4507
1245.14	8.17473
1248.52	6.79331
1251.89	4.71212
1255.27	6.6111
1258.64	7.62542
1262.02	6.56033
1265.39	4.59403
1268.77	4.40613
1272.14	3.17699
1275.52	4.59129
1278.89	0.463135
1282.27	0
