Measurement: Raman, 532 nm, unoriented, Raman Data Processed
Mineral: Jimkrieghite
Rruff sample: R220012
Ideal chemistry: Ca(C_2_H_3_O_3_)^1-^_2_
Locality: Western end of Pusch Ridge in the Santa Catalina Mountains, north of Tucson, Pima County, Arizona, USA
Source: Warren Lazar
Description: Colorless short prismatic or pseudo-cubic crystals, associated with blue lazaraskeite.
Raman shift (cm-1)	intensity
88.1367	0
91.5115	8.15414
94.8863	64.9406
98.2612	199.644
101.636	241.191
105.011	120.198
108.386	26.3648
111.76	149.23
115.135	321.767
118.51	122.1
121.885	81.4129
125.26	186.694
128.635	251.998
132.009	409.768
135.384	520.881
138.759	382.865
142.134	246.281
145.509	123.144
148.883	98.6875
152.258	145.043
155.633	239.493
159.008	270.694
162.383	135.662
165.757	65.0418
169.132	29.6573
172.507	9.6283
175.882	10.3575
179.257	16.8996
182.632	66.2941
186.006	65.6898
189.381	37.8734
192.756	26.3061
196.131	26.7979
199.506	30.359
202.881	31.6629
206.255	29.3712
209.63	26.827
213.005	25.6304
216.38	28.0458
219.755	59.3845
223.129	85.4005
226.504	88.4057
229.879	79.1617
233.254	59.7262
236.629	29.7951
240.004	4.37628
243.378	4.38254
246.753	7.46802
250.128	8.16107
253.503	0.110992
256.878	3.74118
260.252	7.5502
263.627	12.3773
267.002	14.8257
270.377	20.895
273.752	25.6244
277.127	30.426
280.501	34.925
283.876	39.0767
287.251	37.4153
290.626	37.2142
294.001	38.9757
297.375	38.5796
300.75	31.745
304.125	21.0628
307.5	19.9045
310.875	7.8322
314.25	7.07458
317.624	5.1097
320.999	6.89107
324.374	5.8647
327.749	9.43903
331.124	8.8262
334.498	12.3744
337.873	15.7043
341.248	22.0718
344.623	21.1209
347.998	17.6463
351.373	12.5068
354.747	10.7821
358.122	13.916
361.497	13.628
364.872	18.5512
368.247	27.9506
371.621	35.5844
374.996	45.1578
378.371	45.2847
381.746	36.9932
385.121	24.7882
388.495	16.5955
391.87	7.57828
395.245	4.56174
398.62	3.33842
401.995	0.478897
405.37	3.66428
408.744	4.29025
412.119	4.18367
415.494	2.14755
418.869	4.48712
422.244	2.16109
425.618	1.13243
428.993	0.455719
432.368	2.27562
435.743	0.378464
439.118	1.21314
442.493	1.88643
445.867	4.23836
449.242	2.72238
452.617	2.51453
455.992	1.90414
459.367	1.39011
462.741	1.36124
466.116	4.93567
469.491	1.5558
472.866	1.7066
476.241	0.553787
479.615	0.034485
482.99	1.30859
486.365	1.45219
489.74	1.56491
493.115	10.8474
496.49	15.2386
499.864	27.9148
503.239	45.0608
506.614	78.8421
509.989	137.001
513.364	201.207
516.739	257.349
520.113	407.358
523.488	727.756
526.863	1225.71
530.238	1192.35
533.613	746.214
536.987	377.264
540.362	192.063
543.737	110.781
547.112	65.7608
550.487	45.0627
553.861	30.7086
557.236	28.2718
560.611	22.6513
563.986	29.0687
567.361	34.0936
570.736	49.9599
574.11	74.318
577.485	103.742
580.86	122.645
584.235	121.134
587.61	91.1121
590.985	61.8627
594.359	40.057
597.734	29.0214
601.109	15.8276
604.484	8.94464
607.859	5.41536
611.233	4.02834
614.608	0.250275
617.983	3.12855
621.358	3.28861
624.733	0.818802
628.107	0.770859
631.482	1.24832
634.857	3.84651
638.232	9.1283
641.607	9.03709
644.982	16.519
648.356	25.4502
651.731	35.0318
655.106	39.3648
658.481	47.5182
661.856	46.6915
665.231	42.035
668.605	40.2597
671.98	30.1046
675.355	27.4587
678.73	16.8088
682.105	16.4912
685.479	17.1424
688.854	21.3703
692.229	27.0512
695.604	28.7643
698.979	33.9656
702.354	33.8488
705.728	34.0644
709.103	34.968
712.478	32.1927
715.853	29.4901
719.227	29.4597
722.602	24.8373
725.977	22.2322
729.352	14.1746
732.727	14.2804
736.102	13.799
739.476	7.36917
742.851	6.8116
746.226	6.57095
749.601	2.93398
752.976	2.20906
756.351	0.211578
759.725	5.64244
763.1	0.925964
766.475	1.77144
769.85	2.43564
773.225	2.60083
776.599	3.30176
779.974	4.35684
783.349	6.40825
786.724	5.61005
790.099	6.24617
793.473	4.67685
796.848	5.68492
800.223	4.1875
803.598	5.40106
806.973	7.24551
810.348	8.40532
813.722	5.77441
817.097	3.24219
820.472	0.234009
823.847	1.88229
827.222	1.48038
830.597	1.18095
833.971	1.49603
837.346	1.4379
840.721	3.1926
844.096	2.44365
847.471	0.021088
850.846	1.13376
854.22	1.9276
857.595	2.48618
860.97	2.05597
864.345	0.77655
867.72	0.994141
871.094	0.919876
874.469	1.99262
877.844	1.30783
881.219	3.7912
884.594	3.36154
887.968	4.41724
891.343	6.03862
894.718	6.54933
898.093	10.6489
901.468	16.6711
904.842	24.7231
908.217	34.5584
911.592	58.0928
914.967	102.26
918.342	204.151
921.717	437.834
925.091	631.643
928.466	289.63
931.841	225.27
935.216	334.992
938.591	577.052
941.966	1282.39
945.34	851.886
948.715	246.72
952.09	98.1488
955.465	46.3114
958.84	21.5057
962.214	15.2759
965.589	2.18308
968.964	2.50475
972.339	0.150101
975.714	1.75339
979.088	3.10777
982.463	1.8233
985.838	0.25705
989.213	1.92409
992.588	6.00662
995.963	9.0137
999.337	20.789
1002.71	18.7044
1006.09	8.72772
1009.46	7.2108
1012.84	17.8066
1016.21	58.949
1019.59	14.8501
1022.96	0.31044
1026.34	1.89464
1029.71	2.4445
1033.09	1.58752
1036.46	2.88147
1039.84	1.82988
1043.21	4.58714
1046.59	10.3673
1049.96	15.5295
1053.33	23.6813
1056.71	34.3616
1060.08	49.342
1063.46	80.5854
1066.83	159.343
1070.21	259.584
1073.58	226.643
1076.96	191.55
1080.33	146.611
1083.71	87.7093
1087.08	53.3207
1090.46	32.2232
1093.83	23.5145
1097.21	16.3198
1100.58	8.94139
1103.96	11.7066
1107.33	8.81119
1110.71	6.03093
1114.08	4.07956
1117.46	4.04192
1120.83	4.12959
1124.21	5.51416
1127.58	0.702927
1130.95	0.615311
1134.33	2.51469
1137.7	4.50731
1141.08	2.44098
1144.45	3.23686
1147.83	1.97186
1151.2	4.2458
1154.58	0.332596
1157.95	2.8186
1161.33	7.2874
1164.7	4.52097
1168.08	0.8414
1171.45	2.33423
1174.83	2.06306
1178.2	2.87292
1181.58	0.404037
1184.95	2.60066
1188.33	1.65842
1191.7	0.509659
1195.08	0.224899
1198.45	0.698181
1201.83	0.0849
1205.2	3.91388
1208.58	7.92314
1211.95	18.0876
1215.33	33.8787
1218.7	67.6412
1222.08	130.878
1225.45	237.932
1228.83	376.75
1232.2	323.83
1235.58	187.996
1238.95	127.42
1242.32	90.0215
1245.7	57.8674
1249.07	43.5759
1252.45	43.6647
1255.82	47.1819
1259.2	57.2057
1262.57	55.4861
1265.95	42.4487
1269.32	32.5175
1272.7	27.9927
1276.07	25.5013
1279.45	20.4475
1282.82	9.92198
1286.2	7.41812
1289.57	3.96353
1292.95	2.51138
1296.32	2.67897
1299.7	1.69611
