Measurement: Raman, 532 nm, unoriented, Raman Data Processed
Mineral: Katoptrite
Rruff sample: R140009
Ideal chemistry: Mn^2+^_13_Al_4_Sb^5+^_2_O_20_(SiO_4_)_2_
Locality: Brattfors mine, Nordmark, Filipstad, VÃ¤rmland, Sweden
Source: Rock Currier
Description: Black grains, thin black splinters or flakes
Raman shift (cm-1)	intensity
155.833	0
158.726	1.81821
161.619	0.105743
164.511	1.33434
167.404	0.526611
170.297	0.625603
173.189	2.02048
176.082	1.06713
178.975	0.280029
181.868	2.11842
184.76	0.651016
187.653	0.867615
190.546	1.35805
193.438	1.28394
196.331	1.64413
199.224	2.96674
202.116	2.01637
205.009	2.23542
207.902	2.48618
210.794	3.09581
213.687	3.67041
216.58	4.21469
219.473	4.17528
222.365	5.8047
225.258	5.5693
228.151	6.31611
231.043	5.17918
233.936	4.71056
236.829	3.65612
239.721	2.41358
242.614	2.94456
245.507	3.5183
248.4	5.12605
251.292	5.56322
254.185	4.54763
257.078	5.20842
259.97	4.77014
262.863	3.95484
265.756	2.8965
268.649	2.19232
271.541	1.10298
274.434	0.949833
277.327	0.803116
280.219	0.001858
283.112	0.403679
286.005	0.346783
288.897	0.118252
291.79	0.067356
294.683	1.20068
297.575	0.90826
300.468	1.40935
303.361	1.66841
306.254	1.89851
309.146	3.19317
312.039	3.95067
314.932	3.88582
317.824	4.83106
320.717	5.49413
323.61	4.99191
326.502	4.55684
329.395	3.18626
332.288	1.32828
335.181	0.481689
338.073	0.363544
340.966	0.465996
343.859	0.009979
346.751	0.306091
349.644	0.129009
352.537	0.625839
355.43	1.02664
358.322	1.70707
361.215	1.74789
364.108	0.678123
367	0.813221
369.893	0.234497
372.786	0.382957
375.678	0.107521
378.571	0.32082
381.464	0.248955
384.356	0.752934
387.249	1.6104
390.142	2.03431
393.035	2.43253
395.927	2.21962
398.82	2.42728
401.713	2.27449
404.605	2.10003
407.498	1.25061
410.391	1.95437
413.284	1.77275
416.176	2.21048
419.069	2.81557
421.962	2.99309
424.854	2.68112
427.747	3.42508
430.64	2.06976
433.532	1.1913
436.425	0.391941
439.318	0.141567
442.211	0.10701
445.103	0.215839
447.996	0.164635
450.889	0.748112
453.781	1.46585
456.674	2.86271
459.567	4.64024
462.459	6.69006
465.352	8.61364
468.245	9.96555
471.137	11.335
474.03	11.1337
476.923	10.4285
479.816	10.4265
482.708	7.18149
485.601	8.18221
488.494	7.29203
491.386	8.52543
494.279	9.65896
497.172	12.1564
500.065	14.7412
502.957	18.5462
505.85	22.6712
508.743	26.0154
511.635	28.6653
514.528	26.9304
517.421	23.1433
520.313	17.2745
523.206	11.5907
526.099	6.95412
528.991	4.07079
531.884	1.64646
534.777	0.7365
537.67	0.324265
540.562	0.14048
543.455	0.339043
546.348	0.022835
549.24	0.8386
552.133	2.01945
555.026	3.5975
557.918	6.96798
560.811	10.776
563.704	15.3947
566.597	22.2636
569.489	29.7851
572.382	36.0304
575.275	43.833
578.167	49.2779
581.06	54.6886
583.953	56.7608
586.846	55.9151
589.738	49.1122
592.631	36.9179
595.524	25.5484
598.416	15.8297
601.309	9.21237
604.202	4.13617
607.094	1.30542
609.987	0.575813
612.88	0.82914
615.773	0.650101
618.665	0.006783
621.558	1.14507
624.451	2.04217
627.343	3.53259
630.236	5.83584
633.129	7.23476
636.021	7.60707
638.914	9.50574
641.807	11.5588
644.699	15.0169
647.592	22.4557
650.485	30.7239
653.378	41.1877
656.27	53.6307
659.163	67.8552
662.056	79.2691
664.948	90.4668
667.841	98.3052
670.734	100.298
673.626	93.2234
676.519	79.3216
679.412	66.2954
682.305	55.3323
685.197	45.0042
688.09	35.6678
690.983	27.8263
693.875	20.3971
696.768	14.7192
699.661	10.1241
702.553	6.04306
705.446	3.03174
708.339	1.74855
711.232	0.270554
714.124	0.921379
717.017	0.627342
719.91	0.430443
722.802	0.493591
725.695	0.777824
728.588	1.16705
731.481	1.80408
734.373	3.91766
737.266	6.64496
740.159	8.76209
743.051	12.4736
745.944	16.2404
748.837	20.7025
751.729	24.0371
754.622	27.012
757.515	32.1027
760.408	35.7699
763.3	37.9285
766.193	36.2999
769.086	33.0036
771.978	29.259
774.871	27.6224
777.764	27.982
780.656	28.8932
783.549	32.7191
786.442	35.5168
789.335	37.1546
792.227	37.3418
795.12	32.6955
798.013	26.2652
800.905	18.3585
803.798	12.3624
806.691	6.39939
809.583	2.4529
812.476	1.08161
815.369	0.226776
818.261	0.346367
821.154	1.49975
824.047	1.63271
826.94	2.69014
829.832	3.49264
832.725	4.79182
835.618	5.93771
838.51	8.79579
841.403	10.9108
844.296	13.2734
847.188	14.4947
850.081	14.8526
852.974	12.2172
855.867	9.59916
858.759	7.08368
861.652	4.92323
864.545	3.76919
867.437	1.87479
870.33	1.25547
873.223	0.558041
876.115	1.01929
879.008	0.501991
881.901	0.289749
884.794	0.218521
887.686	0.560333
890.579	0.113548
893.472	0.162235
896.364	0.382141
899.257	0.273167
902.15	0.467094
905.043	0.523884
907.935	1.32537
910.828	1.24854
913.721	1.93378
916.613	3.17655
919.506	3.67267
922.399	4.42053
925.291	2.07644
928.184	0.881172
931.077	0.428978
933.97	0.398369
936.862	0.204178
939.755	0.020004
942.648	0.289742
945.54	1.14251
948.433	1.84329
951.326	2.23171
954.218	1.3035
957.111	0.534531
960.004	0.939114
962.896	0.683559
965.789	0.659088
968.682	1.10725
971.575	0.985195
974.467	1.23849
977.36	1.53337
980.253	1.98428
983.145	1.62119
986.038	1.36275
988.931	2.11812
991.823	1.10712
994.716	1.58072
997.609	1.33577
1000.5	1.34394
1003.39	1.06656
1006.29	1.51792
1009.18	0.381668
1012.07	1.96834
1014.97	0.950024
1017.86	1.61669
1020.75	1.36543
1023.64	1.63437
1026.54	1.3448
1029.43	2.4003
1032.32	2.08047
1035.21	2.0335
1038.11	2.22654
1041	2.2211
1043.89	2.80155
1046.79	2.40726
1049.68	2.15916
1052.57	2.59131
1055.46	2.31091
1058.36	1.2428
1061.25	1.326
1064.14	0.994476
1067.03	1.31546
1069.93	0.55714
1072.82	1.16449
1075.71	0.52018
1078.6	0.631779
1081.5	0.581718
1084.39	0.515015
1087.28	0.469788
1090.17	0.196873
1093.07	0.233269
1095.96	0.18264
1098.85	0.107996
1101.75	0.324459
1104.64	0.1388
1107.53	0.523857
1110.42	0.406942
1113.32	0.320486
1116.21	1.07819
1119.1	0.514748
1121.99	0.239784
1124.89	0.132357
1127.78	0.488207
1130.67	0.400944
1133.57	0.255278
1136.46	0.049587
1139.35	0.909674
1142.24	0.391731
1145.14	0.598492
1148.03	0.288483
1150.92	0.664358
1153.82	0.348734
1156.71	0.069305
1159.6	0.291576
1162.49	0.636181
1165.38	0.014481
1168.28	0.496395
1171.17	0.747105
1174.06	0.453047
1176.96	0.229744
1179.85	0.758812
1182.74	0.637802
1185.63	0.390224
1188.53	0.692015
1191.42	1.26114
1194.31	0.999987
1197.2	0.559881
1200.1	0.070747
1202.99	0.381897
1205.88	1.03466
1208.78	1.09911
1211.67	1.05133
1214.56	0.962265
1217.45	0.768171
1220.35	0.473164
1223.24	0.231749
1226.13	0.690145
1229.03	0.51989
1231.92	1.07493
1234.81	0.425228
1237.7	0.567783
1240.6	0.270519
1243.49	0.084852
1246.38	0.810713
1249.27	0.493099
1252.17	0.191263
1255.06	0.603975
1257.95	0.679379
1260.85	0.441368
1263.74	0.503862
1266.63	0.561939
1269.52	0.266201
1272.42	0.164938
1275.31	0.421736
1278.2	0.194777
1281.09	0.143408
1283.99	0.140728
1286.88	0.389315
1289.77	0.517756
1292.66	0.27877
1295.56	0.332054
1298.45	0.555756
1301.34	0.204996
