Measurement: Raman, 780 nm, unoriented, Raman Data Processed
Mineral: Kryzhanovskite
Rruff sample: R130050
Ideal chemistry: (Fe^3+^,Mn^2+^)_3_(PO_4_)_2_(OH,H_2_O)_3_
Locality: Bull Moose mine, Custer County, South Dakota, USA
Source: Don Doell
Description: Light brown massive
Raman shift (cm-1)	intensity
100.117	0
103.492	3.27197
106.867	17.9935
110.242	2.60193
113.617	8.2612
116.992	10.8354
120.366	9.37512
123.741	18.5342
127.116	18.2941
130.491	28.8393
133.865	24.3366
137.24	25.3868
140.615	16.5439
143.99	7.1637
147.365	3.58151
150.74	0.798248
154.114	0.005463
157.489	4.45352
160.864	0.361908
164.239	1.21008
167.614	3.90289
170.988	11.4212
174.363	13.7795
177.738	17.8684
181.113	20.1574
184.488	22.8801
187.863	27.8324
191.237	29.2275
194.612	35.9941
197.987	51.0909
201.362	52.053
204.737	39.9713
208.112	24.1142
211.486	15.8284
214.861	9.16492
218.236	9.11563
221.611	8.77651
224.986	10.1202
228.36	15.2131
231.735	9.71786
235.11	4.96957
238.485	3.4812
241.86	5.48599
245.234	8.59354
248.609	8.75679
251.984	5.39391
255.359	5.90326
258.734	7.61481
262.109	8.06979
265.483	6.65321
268.858	5.53467
272.233	5.75777
275.608	9.18663
278.983	13.65
282.358	16.4795
285.732	20.9776
289.107	25.04
292.482	27.8193
295.857	28.0403
299.232	26.6101
302.606	22.3155
305.981	16.8489
309.356	11.9411
312.731	9.1709
316.106	7.6943
319.481	7.4803
322.855	8.80959
326.23	9.5175
329.605	9.88934
332.98	7.37317
336.355	6.99565
339.729	5.19791
343.104	5.10344
346.479	2.87826
349.854	1.00137
353.229	0.064072
356.603	0.205093
359.978	0.382645
363.353	0.970642
366.728	1.5894
370.103	3.48227
373.478	2.89227
376.852	3.17055
380.227	0.610062
383.602	0.681686
386.977	0.741837
390.352	1.24284
393.726	1.87089
397.101	0.326447
400.476	0.938263
403.851	2.40564
407.226	5.7954
410.601	8.77063
413.975	12.055
417.35	11.1823
420.725	13.2427
424.1	12.2132
427.475	11.6914
430.849	10.3431
434.224	9.61359
437.599	6.08373
440.974	5.39735
444.349	4.00062
447.724	5.29436
451.098	7.41445
454.473	8.086
457.848	10.7767
461.223	12.6477
464.598	14.9031
467.972	17.3326
471.347	20.6874
474.722	22.1501
478.097	19.9468
481.472	19.0544
484.846	16.5947
488.221	12.961
491.596	9.90832
494.971	6.81693
498.346	4.17411
501.721	1.19711
505.095	0.23671
508.47	1.81133
511.845	1.0434
515.22	0.000237
518.595	0.817596
521.97	2.49226
525.344	4.0888
528.719	6.0199
532.094	7.62928
535.469	9.76218
538.844	12.2286
542.218	15.9033
545.593	22.0528
548.968	28.7466
552.343	29.9091
555.718	25.5786
559.092	21.5846
562.467	16.0688
565.842	13.3783
569.217	10.3239
572.592	10.5468
575.967	11.4598
579.341	13.0576
582.716	16.9819
586.091	21.0761
589.466	27.418
592.841	34.2278
596.216	44.0136
599.59	52.8003
602.965	56.4829
606.34	49.1026
609.715	40.8559
613.09	33.8756
616.464	29.0541
619.839	26.8402
623.214	24.776
626.589	22.0852
629.964	16.4098
633.338	11.5846
636.713	7.87478
640.088	5.1967
643.463	2.76425
646.838	1.23335
650.213	0.527702
653.587	0.326546
656.962	0.075958
660.337	1.68757
663.712	0.03595
667.087	0.137726
670.462	0.169868
673.836	0.207283
677.211	1.24067
680.586	2.18499
683.961	0.312195
687.336	2.22639
690.71	2.65109
694.085	2.9511
697.46	1.90475
700.835	2.7502
704.21	2.12775
707.585	3.09086
710.959	3.71631
714.334	2.55418
717.709	3.09309
721.084	1.23051
724.459	1.45345
727.833	2.68012
731.208	0.881142
734.583	0.04612
737.958	0.735092
741.333	0.099792
744.707	0.289406
748.082	0.313477
751.457	0.034523
754.832	0.485046
758.207	0.374725
761.582	0.580177
764.956	0.965416
768.331	0.103523
771.706	0.945709
775.081	1.22364
778.456	0.449974
781.83	0.650223
785.205	1.11391
788.58	1.54852
791.955	1.85412
795.33	3.0088
798.705	1.96162
802.079	2.56778
805.454	4.52647
808.829	4.31603
812.204	5.74021
815.579	5.84312
818.953	6.22888
822.328	5.27065
825.703	7.20245
829.078	6.36342
832.453	6.93842
835.827	7.7116
839.202	7.62558
842.577	7.25411
845.952	7.32146
849.327	7.67504
852.702	6.23492
856.076	5.51622
859.451	6.2755
862.826	4.78404
866.201	4.0293
869.576	2.9845
872.951	1.86246
876.325	1.34177
879.7	0.94635
883.075	1.0929
886.45	0.280205
889.825	0.149979
893.199	0.827271
896.574	0.036942
899.949	0.185646
903.324	0.191711
906.699	1.16076
910.073	2.65205
913.448	5.49256
916.823	12.0302
920.198	21.1061
923.573	34.8068
926.948	43.3771
930.322	35.7221
933.697	19.7584
937.072	10.9148
940.447	8.58527
943.822	11.5553
947.197	14.5972
950.571	19.4199
953.946	23.7912
957.321	30.1205
960.696	39.1629
964.071	51.7323
967.445	78.5351
970.82	109.275
974.195	81.4136
977.57	43.5179
980.945	27.9172
984.319	19.5423
987.694	15.3166
991.069	12.5252
994.444	9.88033
997.819	7.12758
1001.19	4.20549
1004.57	3.2175
1007.94	1.634
1011.32	1.33539
1014.69	0.032402
1018.07	0.222656
1021.44	0.292236
1024.82	1.57449
1028.19	2.53248
1031.57	5.57246
1034.94	7.33096
1038.32	9.20841
1041.69	6.97082
1045.07	7.27023
1048.44	6.5931
1051.82	5.98794
1055.19	4.54574
1058.57	5.89275
1061.94	6.37046
1065.32	10.3966
1068.69	15.3543
1072.07	16.6331
1075.44	9.24359
1078.81	3.13152
1082.19	1.87261
1085.56	0.572311
1088.94	0.48288
1092.31	1.12901
1095.69	1.12825
1099.06	2.57322
1102.44	2.24498
1105.81	3.93369
1109.19	3.49304
1112.56	4.94712
1115.94	6.08987
1119.31	5.94427
1122.69	6.21623
1126.06	5.92953
1129.44	5.99292
1132.81	6.04433
1136.19	4.81847
1139.56	4.24143
1142.94	3.9056
1146.31	3.08562
1149.69	2.43544
1153.06	1.29621
1156.43	1.11003
1159.81	0.039669
1163.18	0.104618
1166.56	0.286324
1169.93	0.224373
1173.31	0.40593
1176.68	0.859917
1180.06	0.555714
1183.43	0.803699
1186.81	0.943989
1190.18	1.85913
1193.56	1.1791
1196.93	1.13364
1200.31	1.52845
1203.68	2.36711
1207.06	2.53286
1210.43	2.73482
1213.81	2.30061
1217.18	2.37915
1220.56	2.62242
1223.93	2.20331
1227.31	2.33419
1230.68	1.76955
1234.06	0.879478
1237.43	1.35815
1240.81	1.76482
1244.18	1.14442
1247.56	1.42762
1250.93	1.41156
1254.31	0.268261
1257.68	0.877605
1261.05	1.18822
1264.43	0.624046
1267.8	1.1113
1271.18	1.08988
1274.55	0.732849
1277.93	0.296993
1281.3	0.92609
