Measurement: Raman, 532 nm, unoriented, Raman Data Processed
Mineral: Kryzhanovskite
Rruff sample: R130050
Ideal chemistry: (Fe^3+^,Mn^2+^)_3_(PO_4_)_2_(OH,H_2_O)_3_
Locality: Bull Moose mine, Custer County, South Dakota, USA
Source: Don Doell
Description: Light brown massive
Raman shift (cm-1)	intensity
114.653	0
118.028	9.50058
121.403	0.230469
124.778	9.263
128.152	9.72672
131.527	23.429
134.902	20.185
138.277	36.131
141.652	30.5414
145.026	18.7144
148.401	18.011
151.776	14.8252
155.151	17.246
158.526	10.0916
161.901	6.64121
165.275	4.03
168.65	2.29373
172.025	7.10989
175.4	5.03323
178.775	5.05356
182.149	6.4487
185.524	7.55441
188.899	7.94574
192.274	9.15799
195.649	12.1492
199.024	14.7065
202.398	12.767
205.773	4.65808
209.148	1.16968
212.523	1.63641
215.898	1.93958
219.273	1.40955
222.647	6.06677
226.022	14.8163
229.397	15.7312
232.772	6.08514
236.147	1.61911
239.521	2.72311
242.896	1.69769
246.271	3.38205
249.646	3.96045
253.021	5.59222
256.396	6.995
259.77	9.74246
263.145	13.092
266.52	15.6914
269.895	20.7031
273.27	27.5365
276.644	35.2271
280.019	40.7648
283.394	49.5546
286.769	56.6133
290.144	59.9662
293.519	60.8608
296.893	60.3285
300.268	55.2229
303.643	48.1873
307.018	39.0565
310.392	31.7215
313.767	27.8955
317.142	23.1217
320.517	23.1372
323.892	23.6437
327.267	24.1061
330.641	21.7814
334.016	23.3138
337.391	22.9765
340.766	23.0744
344.141	25.7912
347.515	25.5049
350.89	27.6346
354.265	28.7259
357.64	28.2657
361.015	30.7696
364.39	30.8975
367.764	30.2588
371.139	25.3646
374.514	20.9111
377.889	14.8177
381.264	8.96176
384.639	6.83446
388.013	3.38333
391.388	1.66038
394.763	1.11678
398.138	1.15991
401.513	0.954285
404.887	0.865219
408.262	4.28287
411.637	9.3727
415.012	11.9616
418.387	12.3606
421.762	11.8585
425.136	10.2091
428.511	8.84857
431.886	5.6274
435.261	0.999039
438.636	1.54526
442.01	1.56987
445.385	0.507233
448.76	3.79315
452.135	6.09557
455.51	10.8604
458.885	10.1538
462.259	13.7443
465.634	15.631
469.009	16.4859
472.384	18.4533
475.759	18.8019
479.133	17.2022
482.508	15.261
485.883	10.8829
489.258	9.92937
492.633	6.67452
496.007	2.20422
499.382	0.133347
502.757	2.04878
506.132	2.65718
509.507	0.349121
512.882	3.91815
516.256	8.73323
519.631	14.8238
523.006	25.3484
526.381	30.7267
529.756	39.514
533.13	51.6267
536.505	61.1401
539.88	72.5877
543.255	83.1748
546.63	93.8919
550.005	95.6722
553.379	89.4914
556.754	78.1886
560.129	64.9814
563.504	51.2168
566.879	46.9039
570.254	43.3037
573.628	43.6792
577.003	46.5911
580.378	50.7787
583.753	59.7869
587.128	65.5353
590.502	73.2225
593.877	80.8688
597.252	91.0958
600.627	97.3785
604.002	96.4716
607.376	88.9353
610.751	79.3385
614.126	69.3381
617.501	60.7092
620.876	53.7501
624.25	44.4405
627.625	36.5645
631	29.0152
634.375	20.6486
637.75	12.7404
641.125	5.24197
644.5	5.04073
647.874	1.71695
651.249	0.737671
654.624	0.227783
657.999	2.18698
661.374	1.65489
664.748	0.258759
668.123	0.180557
671.498	1.10165
674.873	0.684265
678.248	0.887009
681.622	1.71283
684.997	2.05455
688.372	5.11559
691.747	4.54747
695.122	4.98799
698.496	5.3401
701.871	3.73424
705.246	5.01926
708.621	5.58609
711.996	4.5537
715.371	5.60559
718.745	3.86452
722.12	3.01544
725.495	0.822983
728.87	2.38052
732.245	1.88463
735.62	0.74324
738.994	0.322144
742.369	1.0078
745.744	0.692032
749.119	0.549667
752.494	0.694504
755.868	0.452377
759.243	0.001038
762.618	0.271011
765.993	0.168549
769.368	0.8862
772.742	0.901123
776.117	1.76236
779.492	3.01468
782.867	3.73378
786.242	3.82812
789.617	5.10193
792.991	7.82313
796.366	9.1279
799.741	12.3424
803.116	13.7996
806.491	16.0693
809.865	17.2251
813.24	20.2271
816.615	21.051
819.99	23.5545
823.365	22.6734
826.74	24.0602
830.114	24.059
833.489	24.7002
836.864	24.2958
840.239	24.3359
843.614	23.5102
846.989	22.223
850.363	21.0426
853.738	17.3592
857.113	16.7672
860.488	13.3052
863.863	14.0708
867.237	11.1368
870.612	8.39392
873.987	6.92007
877.362	5.01578
880.737	3.93904
884.111	2.06583
887.486	1.36224
890.861	0.710236
894.236	1.18829
897.611	0.161377
900.986	1.28508
904.36	0.653946
907.735	1.80316
911.11	7.32518
914.485	17.6665
917.86	29.6541
921.235	49.8223
924.609	67.242
927.984	64.0143
931.359	41.2003
934.734	19.3263
938.109	8.35277
941.483	7.28548
944.858	11.1425
948.233	16.4004
951.608	20.5514
954.983	26.6428
958.357	35.2486
961.732	47.0297
965.107	65.1746
968.482	92.8125
971.857	99.9942
975.232	62.6442
978.606	34.512
981.981	23.1933
985.356	16.8049
988.731	14.1261
992.106	10.0171
995.481	7.05246
998.855	4.75568
1002.23	0.946732
1005.61	0.582153
1008.98	1.29582
1012.36	3.13368
1015.73	0.849777
1019.1	2.60214
1022.48	4.75215
1025.85	9.60681
1029.23	14.8816
1032.6	20.9569
1035.98	23.9715
1039.35	24.8982
1042.73	28.2901
1046.1	29.2111
1049.48	28.7981
1052.85	29.5504
1056.23	32.5977
1059.6	35.1944
1062.98	42.158
1066.35	50.644
1069.73	58.4177
1073.1	52.0368
1076.48	34.7509
1079.85	25.0345
1083.23	22.595
1086.6	23.2609
1089.97	23.7882
1093.35	27.7124
1096.72	29.0245
1100.1	30.4348
1103.47	32.2825
1106.85	34.4862
1110.22	38.4989
1113.6	38.2185
1116.97	38.2547
1120.35	37.1708
1123.72	33.7184
1127.1	31.8891
1130.47	27.5015
1133.85	24.8515
1137.22	22.0014
1140.6	16.1341
1143.97	13.3892
1147.35	10.0453
1150.72	6.45682
1154.1	2.42479
1157.47	0.887894
1160.85	0.263351
1164.22	0.006577
1167.6	1.14128
1170.97	1.41925
1174.35	0.396744
1177.72	0.70993
1181.1	1.3203
1184.47	0.88562
1187.85	0.552979
1191.22	2.49178
1194.6	4.47968
1197.97	2.83687
1201.34	3.87228
1204.72	4.54065
1208.09	4.96082
1211.47	6.1116
1214.84	5.22014
1218.22	5.74124
1221.59	5.79657
1224.97	5.18739
1228.34	6.0641
1231.72	5.31949
1235.09	3.55437
1238.47	3.42255
1241.84	2.9213
1245.22	2.83443
1248.59	3.13843
1251.97	2.60928
1255.34	3.23451
1258.72	2.56937
1262.09	1.38983
1265.47	1.38995
1268.84	2.36937
1272.21	1.47549
1275.59	1.40762
1278.96	0.932831
1282.34	0.693222
1285.71	0.694122
1289.09	1.26326
1292.46	0.936615
1295.84	0.026398
1299.21	1.328
