Measurement: Raman, 780 nm, unoriented, Raman Data Processed
Mineral: Linekite
Rruff sample: R141026
Ideal chemistry: K_2_Ca_3_[(U^6+^O_2_)(CO_3_)_3_]_2_8H_2_O
Locality: Svornost Mine, Jáchymov, Krušné Hory Mts, Karlovy Vary, Bohemia, Czech Republic
Source: William W. Pinch
Description: Light green tabular crystals
Raman shift (cm-1)	intensity
93.8499	0
97.2247	26.4629
100.6	41.1895
103.974	54.6543
107.349	161.336
110.724	0.46875
114.099	29.082
117.474	0.068359
120.848	24.4824
124.223	64.8418
127.598	55.6758
130.973	51.3555
134.348	79.2305
137.722	146.164
141.097	244.615
144.472	308.879
147.847	389.565
151.222	486.477
154.597	580.951
157.971	596.463
161.346	600.756
164.721	454.234
168.096	327.84
171.471	252.592
174.845	169.092
178.22	119.539
181.595	116.035
184.97	63.1348
188.345	29.1621
191.72	29.1367
195.094	4.78125
198.469	19.4805
201.844	6.94336
205.219	27.125
208.594	6.90625
211.969	38.0117
215.343	83.9141
218.718	109.965
222.093	157.029
225.468	163.996
228.843	212.211
232.217	234.031
235.592	267.264
238.967	254.416
242.342	262.231
245.717	318.295
249.091	272.705
252.466	236.092
255.841	156.977
259.216	150.43
262.591	84.584
265.966	67.5156
269.34	25.9648
272.715	49.9531
276.09	56.3867
279.465	79.9004
282.84	65.6152
286.214	62.1504
289.589	62.7715
292.964	69.2734
296.339	78.9805
299.714	91.8047
303.089	87.3066
306.463	105.227
309.838	66.1856
313.213	74.7519
316.588	74.959
319.963	108.648
323.337	111.297
326.712	130.357
330.087	74.1328
333.462	93.0566
336.837	47.5625
340.212	16.5898
343.586	1.52539
346.961	6.72266
350.336	13.9082
353.711	45.9902
357.086	9.01367
360.46	10.4844
363.835	16.0918
367.21	53.9453
370.585	13.9199
373.96	17.3105
377.334	4.97852
380.709	4.8418
384.084	9.16602
387.459	9.46289
390.834	36.5098
394.209	48.4551
397.583	13.6094
400.958	23.7168
404.333	36.7832
407.708	37.2734
411.083	47.9648
414.457	29.0918
417.832	83.7734
421.207	80.4824
424.582	68.084
427.957	100.102
431.332	66.4668
434.706	86.3457
438.081	106.574
441.456	143.625
444.831	94.9277
448.206	94.8711
451.58	97.9356
454.955	116.254
458.33	116.727
461.705	111.539
465.08	102.525
468.455	98.0898
471.829	101.064
475.204	97.6816
478.579	114.078
481.954	61.4707
485.329	85.9941
488.704	107.084
492.078	106.645
495.453	88.7881
498.828	63.6338
502.203	48.8359
505.577	36.835
508.952	41.3525
512.327	51.3994
515.702	19.0752
519.077	59.5029
522.452	17.8223
525.826	25.8643
529.201	9.41309
532.576	2.55762
535.951	24.6396
539.326	20.6367
542.701	28.3174
546.075	54.5527
549.45	40.2002
552.825	25.2031
556.2	0.368164
559.575	15.4385
562.949	8.50195
566.324	30.3799
569.699	33.2881
573.074	50.7705
576.449	46.6543
579.823	54.2207
583.198	90.0576
586.573	63.6182
589.948	62.4043
593.323	60.251
596.698	37.1367
600.072	81.9736
603.447	79.8066
606.822	55.8975
610.197	67.5986
613.572	48.8643
616.947	53.6055
620.321	44.7441
623.696	44.7978
627.071	49.5654
630.446	40.417
633.821	48.7695
637.195	53.1533
640.57	34.0576
643.945	25.5215
647.32	6.61719
650.695	12.498
654.069	30.5908
657.444	8.28223
660.819	21.1191
664.194	23.2578
667.569	0.046875
670.944	3.5918
674.318	2.93359
677.693	49.3281
681.068	35.293
684.443	30.6709
687.818	37.3486
691.192	40.8096
694.567	43.6103
697.942	41.9287
701.317	18.249
704.692	0.447266
708.067	38.0264
711.441	34.3623
714.816	40.958
718.191	45.2617
721.566	75.2139
724.941	119.455
728.316	189.878
731.69	256.086
735.065	333.115
738.44	378.415
741.815	405.211
745.19	373.1
748.564	329.551
751.939	241.078
755.314	200.162
758.689	155.073
762.064	113.763
765.438	38.6406
768.813	35.3125
772.188	15.0674
775.563	4.61035
778.938	1.57227
782.313	4.47461
785.687	21.7393
789.062	41.4121
792.437	69.0166
795.812	98.8359
799.187	142.204
802.562	213.869
805.936	392.281
809.311	656.29
812.686	1108.94
816.061	1757.43
819.436	2635.37
822.81	3683.49
826.185	3779.86
829.56	2507.73
832.935	1206.94
836.31	557.401
839.684	334.322
843.059	206.341
846.434	134.158
849.809	104.056
853.184	98.0147
856.558	64.6846
859.933	57.8477
863.308	55.1895
866.683	29.8818
870.058	22.4424
873.433	33.7129
876.807	9.25488
880.182	53.4297
883.557	43.3369
886.932	32.5039
890.307	14.8252
893.682	8.5791
897.056	13.7236
900.431	19.623
903.806	29.125
907.181	23.3643
910.556	17.7217
913.93	0.077148
917.305	6.46777
920.68	4.1709
924.055	4.13379
927.43	30.5469
930.804	34.3232
934.179	22.9775
937.554	17.7549
940.929	3.74316
944.304	4.93945
947.679	4.54785
951.053	18.9434
954.428	3.94824
957.803	34.3965
961.178	6.15039
964.553	1.26953
967.928	34.5723
971.302	15.4824
974.677	1.57422
978.052	16.876
981.427	29.3271
984.802	17.6396
988.176	11.6768
991.551	38.0478
994.926	16.5566
998.301	13.4658
1001.68	24.8496
1005.05	14.2002
1008.42	0.754883
1011.8	17.7686
1015.17	35.0244
1018.55	16.7148
1021.92	13.6621
1025.3	12.0293
1028.67	25.623
1032.05	29.4541
1035.42	21.2207
1038.8	8.46582
1042.17	27.7959
1045.55	18.6719
1048.92	21.1689
1052.3	21.751
1055.67	51.627
1059.05	71.8916
1062.42	83.6982
1065.8	121.323
1069.17	223.79
1072.55	290.266
1075.92	299.987
1079.3	232.998
1082.67	207.328
1086.05	254.078
1089.42	341.052
1092.8	423.396
1096.17	461.571
1099.55	420.155
1102.92	254.847
1106.3	121.197
1109.67	40.8096
1113.05	6.41894
1116.42	16.6494
1119.79	3.00586
1123.17	8.57031
1126.54	9.95801
1129.92	8.61523
1133.29	13.4883
1136.67	13.2969
1140.04	6.67383
1143.42	5.75
1146.79	29.667
1150.17	20.3247
1153.54	16.2002
1156.92	50.4346
1160.29	37.7588
1163.67	45.6279
1167.04	46.9312
1170.42	66.7251
1173.79	57.1206
1177.17	37.1196
1180.54	27.3442
1183.92	33.0278
1187.29	32.3511
1190.66	25.3418
1194.04	42.8335
1197.41	29.4898
1200.79	23.8648
1204.16	17.3096
1207.54	16.3833
1210.91	35.8008
1214.29	26.1558
1217.66	8.76025
1221.04	15.5933
1224.41	16.793
1227.79	0.059082
1231.16	2.02344
1234.54	12.8706
1237.91	1.76367
1241.29	3.45654
1244.66	15.8999
1248.04	3.14551
1251.41	1.57129
1254.79	10.9146
1258.16	20.7485
1261.54	39.7446
1264.91	31.3735
1268.29	14.6123
1271.66	29.5225
1275.04	18.9458
1278.41	7.83496
1281.79	2.36231
