Measurement: Raman, 532 nm, unoriented, Raman Data Processed
Mineral: Linekite
Rruff sample: R141026
Ideal chemistry: K_2_Ca_3_[(U^6+^O_2_)(CO_3_)_3_]_2_8H_2_O
Locality: Svornost Mine, Jáchymov, Krušné Hory Mts, Karlovy Vary, Bohemia, Czech Republic
Source: William W. Pinch
Description: Light green tabular crystals
Raman shift (cm-1)	intensity
145.026	0
147.919	14.0967
150.812	33.0769
153.705	47.3635
156.597	66.2405
159.49	65.1108
162.383	58.5271
165.275	47.7786
168.168	28.2546
171.061	19.186
173.953	23.5293
176.846	31.523
179.739	39.9495
182.632	40.8516
185.524	33.9282
188.417	28.5325
191.31	19.7288
194.202	9.03833
197.095	3.53906
199.988	2.12915
202.881	4.24463
205.773	14.2705
208.666	3.00098
211.559	1.23975
214.451	23.2707
217.344	28.967
220.237	53.1262
223.129	65.3972
226.022	73.4412
228.915	81.9946
231.808	102.83
234.7	114.748
237.593	140.472
240.486	137.744
243.378	136.767
246.271	125.788
249.164	129.317
252.056	115.771
254.949	99.7512
257.842	91.2695
260.735	67.4895
263.627	54.5278
266.52	36.9924
269.413	14.7371
272.305	14.7288
275.198	19.0652
278.091	10.2065
280.983	16.6433
283.876	24.3857
286.769	36.8171
289.661	24.6655
292.554	16.5171
295.447	18.6411
298.34	27.4644
301.232	30.802
304.125	33.1223
307.018	33.7004
309.91	26.2056
312.803	19.9255
315.696	33.4031
318.589	36.8975
321.481	51.24
324.374	47.2722
327.267	55.2275
330.159	36.7524
333.052	34.8254
335.945	37.645
338.837	22.4092
341.73	14.9893
344.623	6.99976
347.515	7.93433
350.408	2.62769
353.301	13.0601
356.194	3.78198
359.086	0.11377
361.979	5.22192
364.872	9.4751
367.764	5.96753
370.657	9.98804
373.55	0.259521
376.442	5.66675
379.335	0.603027
382.228	1.12964
385.121	9.83472
388.013	2.88501
390.906	6.84399
393.799	8.59985
396.691	8.69971
399.584	20.6133
402.477	21.2314
405.37	7.15454
408.262	7.40698
411.155	15.1418
414.048	15.3191
416.94	14.9148
419.833	12.3901
422.726	2.53442
425.618	6.052
428.511	8.28467
431.404	2.92481
434.296	0.212646
437.189	1.5874
440.082	4.62891
442.975	1.43506
445.867	8.30005
448.76	7.82178
451.653	11.4702
454.545	4.39478
457.438	7.89771
460.331	8.56396
463.224	6.65137
466.116	2.93433
469.009	4.63599
471.902	7.15234
474.794	4.65625
477.687	12.7148
480.58	3.4375
483.473	9.32959
486.365	5.31152
489.258	7.1665
492.151	1.10693
495.043	1.61035
497.936	2.35156
500.829	15.5078
503.721	24.0044
506.614	16.0801
509.507	13.2593
512.399	11.9878
515.292	14.687
518.185	20.4751
521.078	15.4609
523.97	16.0254
526.863	20.1436
529.756	22.5542
532.648	35.4092
535.541	30.0064
538.434	16.4683
541.327	23.2168
544.219	22.7534
547.112	23.2095
550.005	34.1357
552.897	27.5674
555.79	33.2681
558.683	24.4268
561.575	25.231
564.468	36.1118
567.361	31.8115
570.254	25.6821
573.146	39.7705
576.039	35.0654
578.932	31.7334
581.824	31.8945
584.717	35.0474
587.61	24.7236
590.502	17.2715
593.395	8.80957
596.288	23.7197
599.181	17.2153
602.073	16.0259
604.966	22.4722
607.859	27.7505
610.751	21.9429
613.644	18.9746
616.537	10.8262
619.429	10.0947
622.322	9.79785
625.215	14.4307
628.107	12.1655
631	8.7832
633.893	10.1606
636.786	10.3267
639.678	3.75342
642.571	2.41406
645.464	2.04394
648.356	5.61719
651.249	4.15479
654.142	7.55127
657.034	14.1821
659.927	3.66455
662.82	1.4043
665.713	9.19971
668.605	3.74512
671.498	12.8511
674.391	6.45459
677.283	2.95361
680.176	14.1167
683.069	14.3638
685.962	15.5762
688.854	16.5908
691.747	14.0259
694.64	11.456
697.532	15.3203
700.425	3.31934
703.318	9.66309
706.21	10.6172
709.103	10.2451
711.996	16.6958
714.889	16.9316
717.781	14.6133
720.674	32.2524
723.567	37.3711
726.459	60.21
729.352	84.3691
732.245	116.807
735.137	132.274
738.03	146.494
740.923	145.588
743.816	137.314
746.708	113.973
749.601	94.2559
752.494	70.6372
755.386	56.5352
758.279	38.4224
761.172	35.3935
764.064	4.87842
766.957	1.60498
769.85	6.98828
772.742	2.14258
775.635	0.077148
778.528	2.88281
781.421	16.0264
784.313	19.1519
787.206	11.3701
790.099	18.2656
792.991	30.0498
795.884	42.9951
798.777	56.0942
801.669	81.8965
804.562	140.4
807.455	226.259
810.348	388.162
813.24	607.279
816.133	881.052
819.026	1212.34
821.918	1535.74
824.811	1666.66
827.704	1349.73
830.597	835.638
833.489	420.536
836.382	212.559
839.275	140.915
842.167	95.3091
845.06	54.8638
847.953	46.1645
850.846	38.2622
853.738	30.3452
856.631	13.0337
859.524	14.9209
862.416	24.2334
865.309	23.0605
868.202	30.4199
871.094	18.4326
873.987	6.12305
876.88	2.10889
879.773	8.22315
882.665	1.50732
885.558	3.86963
888.451	8.88086
891.343	6.9668
894.236	10.1523
897.129	24.5796
900.021	24.1572
902.914	17.3252
905.807	17.8174
908.699	26.1865
911.592	18.1152
914.485	8.09229
917.378	16.3213
920.27	10.6348
923.163	11.9868
926.056	25.4458
928.948	24.0024
931.841	13.356
934.734	9.83691
937.626	6.60547
940.519	21.9414
943.412	27.5523
946.305	6.50146
949.197	2.96777
952.09	0.639648
954.983	0.956543
957.875	16.5068
960.768	26.2168
963.661	22.2949
966.553	20.293
969.446	12.7969
972.339	6.15332
975.232	24.3994
978.124	22.9966
981.017	0.224609
983.91	17.5151
986.802	1.02881
989.695	12.605
992.588	5.01416
995.481	6.47852
998.373	0.228516
1001.27	7.10352
1004.16	5.14697
1007.05	9.57129
1009.94	8.21826
1012.84	17.5098
1015.73	31.8896
1018.62	15.9341
1021.51	12.3159
1024.41	4.1875
1027.3	17.6738
1030.19	13.7554
1033.09	18.7954
1035.98	15.4985
1038.87	8.07373
1041.76	20.0205
1044.66	30.1221
1047.55	29.4893
1050.44	21.4106
1053.33	19.8896
1056.23	31.1811
1059.12	35.3296
1062.01	64.1616
1064.9	69.7012
1067.8	97.645
1070.69	106.36
1073.58	129.727
1076.48	127.072
1079.37	102.693
1082.26	99.6089
1085.15	121.18
1088.05	162.03
1090.94	177.117
1093.83	214.165
1096.72	201.175
1099.62	159.665
1102.51	103.874
1105.4	53.6777
1108.3	22.5298
1111.19	8.80371
1114.08	19.4605
1116.97	11.9243
1119.87	7.67432
1122.76	6.79346
1125.65	2.01807
1128.55	1.04443
1131.44	10.8027
1134.33	0.257324
1137.22	3.96631
1140.12	17.2964
1143.01	16.0767
1145.9	26.5503
1148.79	9.76123
1151.69	5.40186
1154.58	25.1724
1157.47	21.9434
1160.36	25.3862
1163.26	38.7456
1166.15	36.0415
1169.04	23.0752
1171.93	25.1997
1174.83	21.46
1177.72	11.6538
1180.61	35.3213
1183.51	31.9019
1186.4	31.9072
1189.29	34.8818
1192.18	36.292
1195.08	45.125
1197.97	41.498
1200.86	33.3804
1203.76	26.8291
1206.65	25.2925
1209.54	32.5298
1212.43	25.686
1215.33	26.2544
1218.22	32.0376
1221.11	29.521
1224	36.044
1226.9	25.9307
1229.79	21.4775
1232.68	27.3311
1235.58	19.9854
1238.47	10.2363
1241.36	20.6714
1244.25	15.6606
1247.14	20.2261
1250.04	36.9941
1252.93	25.8203
1255.82	28.958
1258.72	37.2007
1261.61	16.6802
1264.5	7.26514
1267.39	42.5386
1270.29	20.2051
1273.18	10.9849
1276.07	2.10889
1278.96	0.066406
1281.86	18.6206
1284.75	11.9634
1287.64	22.3242
1290.54	16.8931
1293.43	19.8496
1296.32	0.71582
1299.21	6.30176
