Measurement: Raman, 780 nm, unoriented, Raman Data Processed
Mineral: Maghemite
Rruff sample: R140712
Ideal chemistry: (Fe^3+^_0.67_[box]_0.33_)Fe^3+^_2_O_4_
Locality: Katzenbuckel, Eberbach, Odenwald, Baden-WÃ¼rttemberg, Germany
Source: Rock Currier
Description: Black aggregate of small to fine grains. Fd3m symmetry
Raman shift (cm-1)	intensity
116.992	0
120.366	0.156219
123.741	7.55777
127.116	4.95743
130.491	9.87863
133.865	6.74142
137.24	9.97983
140.615	8.48364
143.99	6.18811
147.365	8.56171
150.74	6.54477
154.114	6.86688
157.489	4.0462
160.864	4.78203
164.239	3.15884
167.614	0.299622
170.988	0.024994
174.363	1.39302
177.738	0.722122
181.113	0.680344
184.488	1.73984
187.863	3.63527
191.237	4.51955
194.612	7.511
197.987	8.85831
201.362	12.445
204.737	16.0217
208.112	21.5434
211.486	32.5802
214.861	45.0562
218.236	50.1439
221.611	37.1738
224.986	24.7437
228.36	17.5067
231.735	16.0021
235.11	14.6545
238.485	12.5272
241.86	11.0407
245.234	10.3492
248.609	9.52605
251.984	9.6637
255.359	11.8181
258.734	15.797
262.109	18.1403
265.483	23.6207
268.858	32.575
272.233	42.4876
275.608	57.372
278.983	69.9215
282.358	70.847
285.732	65.778
289.107	55.0159
292.482	44.7105
295.857	34.0633
299.232	25.9987
302.606	19.3054
305.981	13.6197
309.356	8.34787
312.731	5.62567
316.106	3.41573
319.481	3.10317
322.855	1.74538
326.23	0.151367
329.605	0.362686
332.98	0.369888
336.355	0.529572
339.729	1.2757
343.104	0.136917
346.479	0.455795
349.854	0.385742
353.229	0.803787
356.603	2.27852
359.978	3.09599
363.353	4.52174
366.728	6.65808
370.103	7.61107
373.478	10.0329
376.852	13.0838
380.227	15.8955
383.602	19.8482
386.977	22.623
390.352	27.0113
393.726	28.9035
397.101	27.823
400.476	24.8427
403.851	20.8422
407.226	17.2577
410.601	12.1795
413.975	8.03867
417.35	5.34786
420.725	4.35848
424.1	4.04941
427.475	1.74333
430.849	0.817337
434.224	1.53064
437.599	0.669632
440.974	1.63356
444.349	0.792618
447.724	0.147354
451.098	0.427124
454.473	1.45947
457.848	1.66942
461.223	2.1627
464.598	2.06171
467.972	3.58582
471.347	6.11447
474.722	5.60457
478.097	5.49773
481.472	4.64171
484.846	5.51622
488.221	5.02405
491.596	5.73415
494.971	4.90718
498.346	4.27661
501.721	3.6283
505.095	1.88742
508.47	1.32661
511.845	1.3076
515.22	2.12624
518.595	1.16731
521.97	1.14037
525.344	0.492554
528.719	0.228302
532.094	0.313019
535.469	0.285553
538.844	0.385117
542.218	0.852127
545.593	1.09711
548.968	0.530609
552.343	0.568436
555.718	0.623672
559.092	0.214325
562.467	0.546463
565.842	1.2616
569.217	2.67
572.592	1.97858
575.967	5.99235
579.341	6.83934
582.716	6.62592
586.091	7.81689
589.466	9.98294
592.841	8.92172
596.216	9.61404
599.59	10.8001
602.965	9.21223
606.34	7.77173
609.715	7.1396
613.09	5.71431
616.464	4.05154
619.839	4.40352
623.214	4.19965
626.589	4.07468
629.964	3.26332
633.338	4.74567
636.713	4.28433
640.088	4.84804
643.463	4.27882
646.838	5.13313
650.213	4.84091
653.587	4.38332
656.962	5.36981
660.337	4.59543
663.712	4.4406
667.087	3.32391
670.462	3.92299
673.836	3.28259
677.211	3.70055
680.586	3.11005
683.961	3.03168
687.336	1.35254
690.71	1.76661
694.085	1.51508
697.46	1.73794
700.835	0.076225
704.21	0.372978
707.585	0.064392
710.959	0.527168
714.334	0.117447
717.709	1.06464
721.084	0.217323
724.459	0.618378
727.833	0.353287
731.208	0.417084
734.583	0.308899
737.958	0.656105
741.333	0.083626
744.707	0.297783
748.082	0.467667
751.457	0.204185
754.832	0.062462
758.207	1.51123
761.582	1.27086
764.956	0.686935
768.331	0.764511
771.706	0.981171
775.081	1.78945
778.456	1.2896
781.83	1.72705
785.205	3.18002
788.58	2.06837
791.955	4.99486
795.33	2.25462
798.705	1.47198
802.079	2.48122
805.454	2.3881
808.829	2.2943
812.204	2.63006
815.579	2.69026
818.953	2.85167
822.328	3.71432
825.703	3.01753
829.078	2.4059
832.453	3.27461
835.827	4.09118
839.202	3.5663
842.577	3.42806
845.952	3.80856
849.327	2.8897
852.702	4.69083
856.076	3.89616
859.451	3.98723
862.826	4.13415
866.201	3.71928
869.576	3.10242
872.951	3.14379
876.325	2.90709
879.7	2.52452
883.075	2.68713
886.45	2.40941
889.825	2.36372
893.199	1.95258
896.574	1.31657
899.949	0.765472
903.324	0.521935
906.699	0.718353
910.073	0.825134
913.448	0.455452
916.823	0.035698
920.198	0.811684
923.573	0.019493
926.948	0.219566
930.322	1.01914
933.697	0.078278
937.072	0.215385
940.447	0.357697
943.822	0.79612
947.197	0.68438
950.571	0.423477
953.946	0.440041
957.321	1.6774
960.696	1.06955
964.071	0.081741
967.445	1.17068
970.82	1.13309
974.195	0.666191
977.57	0.978409
980.945	1.62129
984.319	1.15689
987.694	1.25016
991.069	1.22347
994.444	1.01892
997.819	1.04041
1001.19	1.17766
1004.57	1.62585
1007.94	0.506462
1011.32	0.877838
1014.69	1.7522
1018.07	1.06072
1021.44	1.33467
1024.82	2.111
1028.19	1.97196
1031.57	2.61242
1034.94	1.66302
1038.32	1.95507
1041.69	2.01719
1045.07	1.78716
1048.44	1.56519
1051.82	2.76737
1055.19	1.40383
1058.57	2.74905
1061.94	1.07613
1065.32	1.50757
1068.69	1.34148
1072.07	1.37077
1075.44	0.669693
1078.81	0.89492
1082.19	1.31968
1085.56	1.50442
1088.94	0.256218
1092.31	0.174042
1095.69	0.097031
1099.06	0.934937
1102.44	1.23364
1105.81	1.21136
1109.19	1.11194
1112.56	0.005928
1115.94	0.485634
1119.31	0.108856
1122.69	0.093178
1126.06	0.282082
1129.44	0.118996
1132.81	0.584496
1136.19	0.340721
1139.56	1.67293
1142.94	0.144814
1146.31	1.52762
1149.69	1.55554
1153.06	0.976135
1156.43	0.783775
1159.81	0.842224
1163.18	0.304871
1166.56	0.811096
1169.93	0.674446
1173.31	1.41987
1176.68	0.297333
1180.06	0.357719
1183.43	0.873131
1186.81	1.16106
1190.18	0.824081
1193.56	0.62973
1196.93	1.67111
1200.31	0.356544
1203.68	0.059448
1207.06	0.819923
1210.43	1.0474
1213.81	1.68515
1217.18	1.37536
1220.56	1.85877
1223.93	0.901192
1227.31	0.636391
1230.68	0.022171
1234.06	0.029327
1237.43	0.090111
1240.81	1.70539
1244.18	1.22128
1247.56	0.073021
1250.93	0.03524
1254.31	0.938957
1257.68	0.990685
1261.05	1.99003
1264.43	0.49247
1267.8	0.875465
1271.18	3.22342
1274.55	1.45727
1277.93	0.619308
1281.3	0.15332
