Measurement: Raman, 532 nm, unoriented, Raman Data Processed
Mineral: Magnesiocarpholite
Rruff sample: R140873
Ideal chemistry: MgAl_2_Si_2_O_6_(OH)_4_
Locality: Sengelbach valley, Biesenrode, Wippra Metamorphic Zone, Harz, Saxony-Anhalt, Germany
Source: Stefan Schorn
Description: Green to gray fibers
Raman shift (cm-1)	intensity
146.955	0
149.848	5.56836
152.74	55.3525
155.633	68.3691
158.526	45.5635
161.418	90.9961
164.311	108.939
167.204	94.8252
170.097	40.833
172.989	6.52734
175.882	13.6709
178.775	9.85742
181.667	46.6328
184.56	11.0684
187.453	28.5488
190.345	50.9922
193.238	43.5498
196.131	108.921
199.024	127.167
201.916	160.266
204.809	163.41
207.702	230.749
210.594	201.016
213.487	147.787
216.38	78.9394
219.273	37.2685
222.165	15.502
225.058	33.9336
227.951	2.32324
230.843	25.1826
233.736	83.2939
236.629	102.281
239.521	96.1387
242.414	29.1436
245.307	33.7217
248.2	0.222656
251.092	29.5791
253.985	43.6338
256.878	45.9688
259.77	63.334
262.663	74.9219
265.556	65.043
268.448	76.625
271.341	78.6426
274.234	108.734
277.127	219.745
280.019	256.397
282.912	224.06
285.805	194.639
288.697	179.454
291.59	166.829
294.483	191.826
297.375	176.578
300.268	182.961
303.161	222.242
306.053	234.817
308.946	232.72
311.839	227.499
314.732	255.31
317.624	251.94
320.517	262.989
323.41	268.844
326.302	283.016
329.195	309.271
332.088	357.267
334.981	403.653
337.873	481.136
340.766	519.991
343.659	581.337
346.551	522.982
349.444	347.451
352.337	169.991
355.229	52.458
358.122	19.4639
361.015	1.71582
363.908	1.05664
366.8	31.3203
369.693	31.7998
372.586	30.0371
375.478	4.56055
378.371	1.42481
381.264	27.7627
384.156	9.85645
387.049	61.2139
389.942	175.109
392.834	259.868
395.727	379.274
398.62	516.678
401.513	672.037
404.405	570.283
407.298	289.149
410.191	147.499
413.083	78.6377
415.976	84.6611
418.869	79.3691
421.762	52.4014
424.654	76.0234
427.547	175.89
430.44	252.831
433.332	365.414
436.225	461.11
439.118	569.182
442.01	531.242
444.903	448.992
447.796	343.877
450.688	218.056
453.581	184.41
456.474	208.202
459.367	231.548
462.259	240.548
465.152	233.471
468.045	232.167
470.937	230.787
473.83	182.074
476.723	104.347
479.615	45.7617
482.508	12.5889
485.401	0.390625
488.294	2.0332
491.186	21.3867
494.079	11.9297
496.972	26.2158
499.864	22.2178
502.757	13.6807
505.65	30.5508
508.543	26.6758
511.435	0.380859
514.328	0.866211
517.221	30.7549
520.113	15.4824
523.006	1.85059
525.899	30.9951
528.791	56.5762
531.684	125.244
534.577	126.361
537.47	146.801
540.362	215.08
543.255	268.658
546.148	370.292
549.04	489.81
551.933	618.42
554.826	703.682
557.718	754.225
560.611	643.521
563.504	502.867
566.396	421.789
569.289	355.883
572.182	347.935
575.075	379.508
577.967	348.502
580.86	312.498
583.753	348.723
586.645	309.227
589.538	344.775
592.431	301.953
595.323	318.906
598.216	369.08
601.109	432.904
604.002	444.562
606.894	431.852
609.787	443.117
612.68	395.777
615.572	366.981
618.465	274.135
621.358	186.728
624.25	153.543
627.143	116.129
630.036	89.2695
632.929	87.4414
635.821	81.7305
638.714	34.8496
641.607	44.0957
644.5	64.6719
647.392	96.2949
650.285	117.93
653.178	131.84
656.07	133.184
658.963	84.5098
661.856	36.4629
664.748	14.4883
667.641	4.63672
670.534	5.75586
673.427	6.33789
676.319	22.498
679.212	6.99023
682.105	17.5117
684.997	10.707
687.89	6.44531
690.783	32.6855
693.675	36.1914
696.568	51.2773
699.461	64.3731
702.354	19.1719
705.246	57.0586
708.139	77.8633
711.032	66.6914
713.924	99.2656
716.817	157.992
719.71	260.693
722.602	342.295
725.495	543.467
728.388	664.473
731.28	828.203
734.173	931.16
737.066	859.838
739.959	597.648
742.851	396.131
745.744	244.955
748.637	193.635
751.529	114.004
754.422	57.2539
757.315	15.918
760.207	26.6777
763.1	23.5957
765.993	19.9219
768.886	34.8984
771.778	47.8633
774.671	74.3691
777.564	68.5938
780.456	73.3711
783.349	43.2266
786.242	4.01172
789.135	0.423828
792.027	25.8301
794.92	29.1426
797.813	16.3867
800.705	0.886719
803.598	22.4492
806.491	4.89648
809.383	18.375
812.276	41.6602
815.169	31.8184
818.062	42.9844
820.954	76.0019
823.847	37.9297
826.74	29.957
829.632	8.91797
832.525	18.1367
835.418	20.8555
838.31	27.8496
841.203	15.127
844.096	5.99805
846.989	9.0293
849.881	11.9141
852.774	18.9609
855.667	3.12305
858.559	23.0039
861.452	89.1231
864.345	176.305
867.237	200.738
870.13	248.363
873.023	252.639
875.915	264.498
878.808	344.125
881.701	354.932
884.594	249.4
887.486	166.658
890.379	115.879
893.272	93.5742
896.164	105.086
899.057	147.172
901.95	93.1074
904.842	87.5742
907.735	108.678
910.628	89.9277
913.521	89.3769
916.413	82.0059
919.306	93.9141
922.199	77.3242
925.091	97.4883
927.984	96.7734
930.877	54.1348
933.769	2.58203
936.662	12.5879
939.555	7.64648
942.448	5.62695
945.34	52.2305
948.233	24.4473
951.126	26.0645
954.018	17.998
956.911	50.1328
959.804	80.9922
962.697	138.535
965.589	35.9688
968.482	11.5156
971.375	0.9375
974.267	18.8926
977.16	65.6016
980.053	53.8203
982.945	4.95703
985.838	17.9414
988.731	20.7344
991.624	12.4531
994.516	18.1289
997.409	5.50977
1000.3	12.8867
1003.19	9.18164
1006.09	68.7695
1008.98	34.8418
1011.87	75.1562
1014.76	116.853
1017.66	138.644
1020.55	137.348
1023.44	170.603
1026.34	215.379
1029.23	257.777
1032.12	220.588
1035.01	188.15
1037.91	116.951
1040.8	132.191
1043.69	159.857
1046.59	147.59
1049.48	135.221
1052.37	120.326
1055.26	134.935
1058.16	110.971
1061.05	116.242
1063.94	83.4551
1066.83	90.9297
1069.73	109.746
1072.62	108.658
1075.51	123.139
1078.4	106.856
1081.3	117.621
1084.19	114.42
1087.08	132.984
1089.97	134.322
1092.87	99.6191
1095.76	45.4531
1098.65	76.082
1101.55	28.5898
1104.44	71.3711
1107.33	37.5566
1110.22	79.5586
1113.12	40.3555
1116.01	52.3262
1118.9	51.0684
1121.8	0.347656
1124.69	3.72461
1127.58	24.623
1130.47	8.82031
1133.37	24.1172
1136.26	3.12695
1139.15	69.7109
1142.04	46.2305
1144.94	26.5977
1147.83	47.9238
1150.72	68.3848
1153.62	83.0996
1156.51	74.3184
1159.4	107.045
1162.29	131.478
1165.19	116.662
1168.08	140.734
1170.97	87.3672
1173.86	84.3164
1176.76	109.728
1179.65	139.797
1182.54	128.287
1185.43	156.451
1188.33	153.777
1191.22	208.768
1194.11	199.945
1197.01	190.731
1199.9	126.012
1202.79	145.387
1205.68	156.84
1208.58	124.316
1211.47	162.834
1214.36	147
1217.25	151.215
1220.15	159.502
1223.04	185.879
1225.93	143.383
1228.83	133.867
1231.72	71.3574
1234.61	76.2715
1237.5	71.6055
1240.4	77.0195
1243.29	78.0723
1246.18	77.791
1249.07	108.369
1251.97	115.746
1254.86	102.291
1257.75	129.131
1260.64	78.7012
1263.54	37.7305
1266.43	61.9141
1269.32	67.5801
1272.21	35.7812
1275.11	8.26758
1278	1.37891
1280.89	49.1172
1283.79	45.3828
1286.68	72.4141
1289.57	97.6133
1292.46	90.8906
1295.36	2.33008
1298.25	33.8008
