Measurement: Raman, 532 nm, unoriented, Raman Data Processed
Mineral: Magnesioalterite
Rruff sample: R180015
Ideal chemistry: Mg_2_Fe^3+^_4_(S^6+^O_4_)_4_((C_2_)^6+^O_4_)_2_(OH)_4_17H_2_O
Locality: Near Marble Canyon, Coconino County, Arizona, USA
Source: Malcom Alter
Description: Isolated or aggregates of yellow brown prismatic crystals on petrified wood, associated with greenish prismatic alterite, gypsum, alunogen, and sulfur. Type sample.
Measured chemistry: (Mg_0.74_Zn_0.60_Fe^2+^_0.58_Mn_0.09_)Fe^3+^_4_(SO_4_)_4.0_(C_2_O_4_)_2.0_(OH)_4.0_Â·17H_2_O
Raman shift (cm-1)	intensity
88.1367	0
91.5115	1.71237
94.8863	1.58748
98.2612	0.37468
101.636	0.120064
105.011	1.27174
108.386	9.62355
111.76	14.0796
115.135	17.78
118.51	21.492
121.885	23.6966
125.26	26.2333
128.635	27.0605
132.009	30.0382
135.384	32.9656
138.759	32.5729
142.134	34.2636
145.509	32.4381
148.883	30.0705
152.258	28.8023
155.633	25.5107
159.008	25.0593
162.383	25.483
165.757	23.428
169.132	20.9497
172.507	23.0203
175.882	21.3434
179.257	16.5405
182.632	9.54082
186.006	7.51166
189.381	5.4346
192.756	3.13445
196.131	1.74598
199.506	0.077469
202.881	1.06401
206.255	0.078156
209.63	0.301666
213.005	0.26664
216.38	1.61037
219.755	1.01446
223.129	2.18145
226.504	1.63448
229.879	2.88712
233.254	2.35406
236.629	1.43179
240.004	0.219696
243.378	0.392838
246.753	0.833191
250.128	1.93404
253.503	3.37568
256.878	8.69381
260.252	12.5446
263.627	13.729
267.002	16.6445
270.377	14.9857
273.752	12.464
277.127	8.47134
280.501	6.22542
283.876	7.01746
287.251	7.21914
290.626	6.26012
294.001	5.75498
297.375	5.52757
300.75	6.46236
304.125	7.47784
307.5	7.71223
310.875	7.69345
314.25	8.78076
317.624	8.55478
320.999	7.09272
324.374	5.47902
327.749	2.28901
331.124	2.38841
334.498	0.132904
337.873	2.30621
341.248	1.21681
344.623	2.59109
347.998	3.41092
351.373	3.25394
354.747	3.18289
358.122	1.81719
361.497	1.86906
364.872	0.369514
368.247	0.11245
371.621	0.144905
374.996	1.31594
378.371	0.632492
381.746	1.78343
385.121	0.79818
388.495	3.48021
391.87	3.30629
395.245	4.58634
398.62	5.03175
401.995	5.60207
405.37	6.01432
408.744	5.74778
412.119	9.67352
415.494	11.26
418.869	11.8577
422.244	15.2006
425.618	15.1779
428.993	11.9085
432.368	9.74794
435.743	6.2535
439.118	5.85081
442.493	6.81149
445.867	9.49872
449.242	10.7763
452.617	11.7923
455.992	13.4485
459.367	12.6548
462.741	12.2271
466.116	10.7146
469.491	10.7902
472.866	10.0278
476.241	9.00516
479.615	12.5457
482.99	10.5287
486.365	9.605
489.74	9.61999
493.115	6.5349
496.49	5.94905
499.864	3.53411
503.239	0.551735
506.614	1.55603
509.989	1.42421
513.364	0.965126
516.739	3.86304
520.113	4.95647
523.488	11.9313
526.863	17.5528
530.238	24.2669
533.613	32.0746
536.987	41.2436
540.362	47.0459
543.737	46.8403
547.112	40.5442
550.487	27.5238
553.861	19.1277
557.236	10.2986
560.611	4.58302
563.986	2.15408
567.361	0.19487
570.736	1.15235
574.11	0.404503
577.485	1.39374
580.86	0.125313
584.235	0.836964
587.61	0.366577
590.985	4.75621
594.359	4.76266
597.734	7.43891
601.109	9.34928
604.484	10.8545
607.859	14.5726
611.233	15.3206
614.608	16.6179
617.983	14.2554
621.358	14.2512
624.733	11.9584
628.107	7.57405
631.482	3.81311
634.857	2.56713
638.232	0.782463
641.607	2.46098
644.982	2.10466
648.356	3.48763
651.731	4.89898
655.106	4.03008
658.481	4.03162
661.856	2.00239
665.231	2.20276
668.605	1.01653
671.98	0.177635
675.355	0.150234
678.73	0.863411
682.105	1.9911
685.479	0.838509
688.854	2.66924
692.229	3.29715
695.604	4.47105
698.979	5.44719
702.354	7.08266
705.728	7.70501
709.103	10.0961
712.478	12.1615
715.853	13.0978
719.227	12.8845
722.602	14.2299
725.977	13.1595
729.352	11.5507
732.727	9.57309
736.102	8.01346
739.476	7.48325
742.851	4.73914
746.226	4.118
749.601	3.09821
752.976	2.07729
756.351	1.14071
759.725	0.523342
763.1	0.679241
766.475	0.362217
769.85	1.38615
773.225	0.198486
776.599	0.759674
779.974	1.52689
783.349	1.34541
786.724	1.71239
790.099	1.67198
793.473	2.80977
796.848	1.31377
800.223	1.18673
803.598	1.22285
806.973	0.88376
810.348	0.407831
813.722	0.059332
817.097	0.824034
820.472	0.949076
823.847	0.496843
827.222	1.63616
830.597	2.01078
833.971	3.04404
837.346	3.54202
840.721	2.19197
844.096	2.54737
847.471	2.10504
850.846	2.00089
854.22	2.74378
857.595	2.22672
860.97	2.08936
864.345	2.10926
867.72	0.782997
871.094	0.899118
874.469	0.966099
877.844	1.02343
881.219	1.17017
884.594	0.169611
887.968	0.593218
891.343	0.527906
894.718	0.056675
898.093	1.02265
901.468	0.939009
904.842	1.82252
908.217	2.57432
911.592	3.4339
914.967	3.20793
918.342	2.07213
921.717	0.940453
925.091	0.309467
928.466	0.384254
931.841	1.03768
935.216	0.005833
938.591	2.10055
941.966	5.23621
945.34	7.76724
948.715	8.80265
952.09	5.78672
955.465	3.05889
958.84	0.881775
962.214	0.722893
965.589	1.57045
968.964	2.38899
972.339	4.56491
975.714	8.46994
979.088	12.6919
982.463	20.2507
985.838	26.5307
989.213	36.2785
992.588	46.3385
995.963	57.1679
999.337	70.806
1002.71	86.0254
1006.09	105.54
1009.46	116.4
1012.84	110.492
1016.21	105.106
1019.59	99.3189
1022.96	87.4694
1026.34	71.0054
1029.71	48.1448
1033.09	29.042
1036.46	15.9653
1039.84	8.35321
1043.21	4.64359
1046.59	1.42731
1049.96	1.05857
1053.33	0.812485
1056.71	0.134556
1060.08	0.666889
1063.46	1.61792
1066.83	2.66917
1070.21	5.70695
1073.58	7.08279
1076.96	8.40179
1080.33	10.6255
1083.71	10.1359
1087.08	11.7876
1090.46	12.6162
1093.83	13.3549
1097.21	13.9601
1100.58	11.8012
1103.96	10.3713
1107.33	9.3741
1110.71	7.91637
1114.08	7.9162
1117.46	8.48383
1120.83	8.97612
1124.21	9.96002
1127.58	9.10474
1130.95	8.32511
1134.33	5.6128
1137.7	5.09536
1141.08	3.97063
1144.45	2.92266
1147.83	1.83492
1151.2	1.05864
1154.58	0.042122
1157.95	0.179253
1161.33	0.525398
1164.7	0.371376
1168.08	0.338497
1171.45	0.734684
1174.83	1.40607
1178.2	2.34817
1181.58	3.6745
1184.95	4.85094
1188.33	7.79111
1191.7	11.122
1195.08	13.3074
1198.45	15.7688
1201.83	16.1671
1205.2	16.6854
1208.58	15.9596
1211.95	15.8652
1215.33	14.7322
1218.7	11.2944
1222.08	10.6939
1225.45	9.97634
1228.83	7.95425
1232.2	6.03264
1235.58	4.23094
1238.95	2.784
1242.32	2.49261
1245.7	1.44772
1249.07	0.435986
1252.45	0.196903
1255.82	0.075922
1259.2	0.243877
1262.57	0.983206
1265.95	1.57325
1269.32	1.06031
1272.7	1.93286
1276.07	2.36902
1279.45	3.66894
1282.82	5.46775
1286.2	2.07462
1289.57	0.745682
1292.95	0.197998
1296.32	0.37224
1299.7	0.177197
