Measurement: Raman, 780 nm, unoriented, Raman Data Processed
Mineral: Malhmoodite
Rruff sample: R060462
Ideal chemistry: Fe^2+^Zr^4+^(PO_4_)_2_4H_2_O
Locality: Union Carbide Vanadium mine, Wilson Springs, Garland County, Arkansas, USA
Source: Michael Scott
Description: White to cream spherical aggregates of acicular crystals associated with colorless albite, dark green aegirine, octahedral pyrochlore, and yellowish titanite.
Raman shift (cm-1)	intensity
94.3317	0
97.7065	0.53418
101.081	6.98535
104.456	40.021
107.831	62.4033
111.206	41.5649
114.581	14.7407
117.955	7.88721
121.33	21.3765
124.705	101.431
128.08	114.894
131.455	74.1851
134.829	91.7353
138.204	131.821
141.579	123.942
144.954	69.5908
148.329	8.78809
151.704	25.2192
155.078	26.2131
158.453	5.77564
161.828	47.4104
165.203	15.4739
168.578	39.5832
171.952	30.0801
175.327	37.4753
178.702	57.5583
182.077	77.6694
185.452	76.915
188.827	57.395
192.201	78.7566
195.576	72.1079
198.951	68.2219
202.326	97.2876
205.701	75.5557
209.076	72.2476
212.45	61.5894
215.825	62.5832
219.2	76.9749
222.575	84.4463
225.95	69.866
229.324	76.8804
232.699	90.9277
236.074	117.942
239.449	113.388
242.824	115.712
246.198	132.996
249.573	131.326
252.948	134.021
256.323	162.905
259.698	191.777
263.073	221.505
266.447	254.005
269.822	261.875
273.197	285.022
276.572	289.483
279.947	294.116
283.322	292.099
286.696	325.634
290.071	314.337
293.446	306.637
296.821	258.981
300.196	258.515
303.57	248.018
306.945	236.953
310.32	212.817
313.695	193.403
317.07	164.753
320.445	107.347
323.819	96.8032
327.194	70.1013
330.569	41
333.944	40.7812
337.319	13.3408
340.693	1.12207
344.068	5.06445
347.443	0.055908
350.818	12.0403
354.193	0.470459
357.567	8.92505
360.942	30.1811
364.317	10.4609
367.692	14.0632
371.067	3.5896
374.442	8.53516
377.816	22.0234
381.191	45.2656
384.566	72.0684
387.941	78.3618
391.316	112.977
394.69	108.353
398.065	125.427
401.44	154.849
404.815	173.139
408.19	191.558
411.565	233.494
414.939	239.223
418.314	258.274
421.689	232.507
425.064	226.618
428.439	212.813
431.813	193.173
435.188	173.261
438.563	144.073
441.938	123.38
445.313	83.6494
448.688	90.7595
452.062	55.6582
455.437	56.9226
458.812	70.1856
462.187	29.6526
465.562	33.605
468.937	18.6958
472.311	15.3152
475.686	9.65137
479.061	2.29883
482.436	2.53857
485.81	0.996582
489.185	2.97095
492.56	12.9888
495.935	1.71875
499.31	11.6895
502.685	6.31494
506.059	6.68921
509.434	7.65771
512.809	11.5188
516.184	1.31226
519.559	26.4404
522.933	22.2717
526.308	41.7329
529.683	23.9712
533.058	41.6611
536.433	49.6599
539.808	44.4485
543.182	51.9907
546.557	61.3513
549.932	88.241
553.307	83.0237
556.682	91.7
560.057	98.7566
563.431	91.3462
566.806	91.9846
570.181	86.7481
573.556	80.0518
576.931	91.7053
580.305	70.792
583.68	85.9453
587.055	58.8555
590.43	55.2161
593.805	56.4587
597.18	39.4421
600.554	44.6157
603.929	23.8911
607.304	27.5022
610.679	31.8618
614.054	23.0815
617.428	23.2097
620.803	30.3169
624.178	26.5867
627.553	15.7725
630.928	28.8801
634.303	24.4651
637.677	34.6743
641.052	25.0762
644.427	12.1514
647.802	10.0454
651.177	1.33716
654.552	8.19434
657.926	6.57519
661.301	7.15064
664.676	3.33862
668.051	3.28076
671.426	9.74023
674.8	3.88696
678.175	8.48828
681.55	23.5437
684.925	16.2644
688.3	11.2886
691.674	6.61255
695.049	7.05029
698.424	6.21875
701.799	21.6931
705.174	21.3074
708.548	33.1631
711.923	24.3015
715.298	39.9797
718.673	24.1094
722.048	29.5303
725.423	26.0735
728.797	30.0571
732.172	24.9883
735.547	19.7561
738.922	31.634
742.297	38.3486
745.672	31.9968
749.046	18.585
752.421	6.02759
755.796	2.99048
759.171	3.13965
762.546	26.877
765.92	14.6082
769.295	23.678
772.67	18.5227
776.045	5.46362
779.42	15.1995
782.795	0.768311
786.169	18.9624
789.544	23.8176
792.919	11.554
796.294	31.29
799.669	18.2322
803.043	26.6814
806.418	31.4673
809.793	9.01074
813.168	28.2856
816.543	21.5794
819.918	39.8648
823.292	30.3425
826.667	29.9473
830.042	15.6206
833.417	19.0459
836.792	37.5383
840.166	45.0459
843.541	33.937
846.916	35.0264
850.291	37.614
853.666	31.1101
857.04	32.7527
860.415	38.8506
863.79	48.373
867.165	44.6743
870.54	35.0667
873.915	36.092
877.289	22.145
880.664	37.9795
884.039	35.4605
887.414	25.0632
890.789	14.563
894.163	9.85498
897.538	32.259
900.913	11.553
904.288	5.19067
907.663	7.41602
911.038	0.754639
914.412	15.4815
917.787	17.3577
921.162	9.02734
924.537	0.858643
927.912	3.84155
931.287	2.3999
934.661	0.924805
938.036	7.66748
941.411	11.1389
944.786	0.328613
948.161	0.280762
951.535	8.49243
954.91	0.979736
958.285	40.1592
961.66	32.6643
965.035	85.8931
968.409	123.749
971.784	159.007
975.159	235.053
978.534	347.195
981.909	454.452
985.284	570.072
988.658	695.625
992.033	824.694
995.408	923.572
998.783	1059.59
1002.16	1175.65
1005.53	1264.33
1008.91	1295.04
1012.28	1335.9
1015.66	1285
1019.03	1177.51
1022.41	1088.45
1025.78	949.432
1029.16	830.13
1032.53	747.674
1035.91	682.26
1039.28	597.256
1042.66	560.393
1046.03	512.536
1049.4	463.575
1052.78	437.691
1056.15	394.098
1059.53	329.55
1062.9	267.853
1066.28	215.034
1069.65	169.116
1073.03	118.594
1076.4	83.5476
1079.78	75.5288
1083.15	51.126
1086.53	26.4334
1089.9	30.8545
1093.28	4.45264
1096.65	9.34985
1100.03	0.067627
1103.4	20.501
1106.78	6.78003
1110.15	7.68652
1113.53	13.3865
1116.9	2.96533
1120.28	7.19507
1123.65	4.62207
1127.03	0.880859
1130.4	3.15845
1133.78	18.2385
1137.15	42.4719
1140.53	43.0188
1143.9	56.0981
1147.28	48.6435
1150.65	71.7053
1154.03	64.0278
1157.4	71.1687
1160.77	57.1668
1164.15	38.2957
1167.52	60.7175
1170.9	31.9348
1174.27	35.0098
1177.65	36.7471
1181.02	28.1721
1184.4	36.0425
1187.77	37.5315
1191.15	36.6768
1194.52	33.5835
1197.9	10.3445
1201.27	26.5222
1204.65	8.69336
1208.02	12.2522
1211.4	44.8025
1214.77	30.7881
1218.15	25.6189
1221.52	48.9529
1224.9	32.3391
1228.27	19.0088
1231.64	10.8235
1235.02	26.9104
1238.39	15.5664
1241.77	10.6965
1245.14	18.8835
1248.52	11.0117
1251.89	3.00781
1255.27	17.3164
1258.64	10.8164
1262.02	21.6243
1265.39	19.7297
1268.77	15.1199
1272.14	10.6533
1275.52	12.6023
1278.89	11.6243
1282.27	0
