Measurement: Raman, 532 nm, unoriented, Raman Data Processed
Mineral: Malhmoodite
Rruff sample: R060462
Ideal chemistry: Fe^2+^Zr^4+^(PO_4_)_2_4H_2_O
Locality: Union Carbide Vanadium mine, Wilson Springs, Garland County, Arkansas, USA
Source: Michael Scott
Description: White to cream spherical aggregates of acicular crystals associated with colorless albite, dark green aegirine, octahedral pyrochlore, and yellowish titanite.
Raman shift (cm-1)	intensity
88.1367	0
91.5115	41.8989
94.8863	23.3577
98.2612	1.10083
101.636	3.60803
105.011	22.428
108.386	101.108
111.76	155.636
115.135	221.713
118.51	311.721
121.885	362.936
125.26	425.141
128.635	474.749
132.009	529.385
135.384	582.718
138.759	622.384
142.134	626.499
145.509	575.256
148.883	562.603
152.258	521.045
155.633	480.864
159.008	438.948
162.383	399.719
165.757	352.519
169.132	319.365
172.507	281.266
175.882	252.28
179.257	216.057
182.632	188.423
186.006	162.606
189.381	140.536
192.756	119.015
196.131	99.2007
199.506	71.3362
202.881	53.0686
206.255	14.3865
209.63	24.9287
213.005	20.9551
216.38	11.1519
219.755	6.26172
223.129	17.0642
226.504	14.3665
229.879	8.5564
233.254	1.01587
236.629	6.50928
240.004	8.02832
243.378	34.8394
246.753	55.4375
250.128	76.1228
253.503	106.835
256.878	140.6
260.252	163.815
263.627	198.714
267.002	223.824
270.377	248.016
273.752	327.546
277.127	385.022
280.501	444.491
283.876	508.28
287.251	585.261
290.626	659.446
294.001	684.693
297.375	714.944
300.75	672.803
304.125	627.014
307.5	538.596
310.875	457.913
314.25	384.57
317.624	299.398
320.999	247.236
324.374	190.266
327.749	165.941
331.124	111.727
334.498	98.2366
337.873	71.9414
341.248	57.0798
344.623	56.1084
347.998	31.8252
351.373	22.5659
354.747	10.5061
358.122	5.45947
361.497	4.83496
364.872	6.46924
368.247	2.229
371.621	5.85303
374.996	1.22534
378.371	1.83862
381.746	13.5386
385.121	31.4451
388.495	43.5024
391.87	52.5566
395.245	81.0535
398.62	102.627
401.995	136.953
405.37	178.761
408.744	203.981
412.119	250.509
415.494	271.749
418.869	269.704
422.244	271.419
425.618	286.297
428.993	280.715
432.368	288.315
435.743	257.352
439.118	216.435
442.493	166.055
445.867	126.483
449.242	106.713
452.617	65.6455
455.992	50.1162
459.367	45.9348
462.741	27.1079
466.116	27.1457
469.491	4.69531
472.866	21.8694
476.241	11.5474
479.615	6.77612
482.99	7.38428
486.365	7.94751
489.74	0.695801
493.115	1.5708
496.49	7.17896
499.864	4.84863
503.239	31.1196
506.614	11.406
509.989	15.6787
513.364	23.1499
516.739	30.9951
520.113	36.0303
523.488	43.8184
526.863	55.6621
530.238	72.3064
533.613	76.79
536.987	93.0559
540.362	105.163
543.737	115.808
547.112	126.666
550.487	123.991
553.861	151.659
557.236	164.002
560.611	173.212
563.986	176.72
567.361	177.034
570.736	170.034
574.11	154.027
577.485	150.021
580.86	146.7
584.235	133.806
587.61	116.588
590.985	105.543
594.359	87.4348
597.734	89.4749
601.109	86.3682
604.484	67.8892
607.859	62.0415
611.233	67.5596
614.608	74.4512
617.983	56.9182
621.358	51.3535
624.733	36.8018
628.107	25.9802
631.482	12.3332
634.857	24.2
638.232	16.7954
641.607	1.17529
644.982	3.67944
648.356	5.04492
651.731	7.05737
655.106	5.39209
658.481	4.16089
661.856	9.40625
665.231	12.8381
668.605	10.283
671.98	10.9829
675.355	3.24146
678.73	0.658936
682.105	5.8855
685.479	11.9878
688.854	13.1086
692.229	6.99292
695.604	3.93677
698.979	4.68237
702.354	1.6582
705.728	7.3772
709.103	12.4741
712.478	10.1025
715.853	8.31812
719.227	10.2354
722.602	23.531
725.977	6.36353
729.352	3.06128
732.727	14.6738
736.102	27.8875
739.476	13.7371
742.851	16.0681
746.226	17.854
749.601	14.9287
752.976	9.72168
756.351	2.48926
759.725	30.905
763.1	22.731
766.475	14.8791
769.85	19.6631
773.225	0.418213
776.599	20.4302
779.974	12.7786
783.349	32.1858
786.724	8.27979
790.099	11.0269
793.473	11.2835
796.848	21.3699
800.223	31.2676
803.598	21.532
806.973	18.4956
810.348	15.8296
813.722	18.8728
817.097	29.7485
820.472	23.7144
823.847	14.8472
827.222	28.1814
830.597	31.6426
833.971	49.8618
837.346	49.311
840.721	32.169
844.096	57.2942
847.471	43.6958
850.846	48.5503
854.22	40.831
857.595	47.7056
860.97	39.8332
864.345	40.707
867.72	48.8376
871.094	42.6418
874.469	25.0972
877.844	37.8538
881.219	16.3879
884.594	35.1248
887.968	33.3533
891.343	32.1135
894.718	20.3943
898.093	10.3225
901.468	10.887
904.842	1.22314
908.217	12.2351
911.592	4.35181
914.967	6.85376
918.342	1.95239
921.717	14.4734
925.091	12.2449
928.466	12.9961
931.841	9.28125
935.216	0.094238
938.591	6.23242
941.966	5.90332
945.34	4.57031
948.715	30.6572
952.09	54.4956
955.465	74.4019
958.84	113.894
962.214	172.221
965.589	207.9
968.964	290.146
972.339	388.066
975.714	526.414
979.088	714.273
982.463	923.52
985.838	1174.63
989.213	1453.05
992.588	1641.98
995.963	1755.33
999.337	1871.62
1002.71	2029.15
1006.09	2226.21
1009.46	2258.2
1012.84	2052.92
1016.21	1710.82
1019.59	1421.94
1022.96	1162
1026.34	973.511
1029.71	842.848
1033.09	767.687
1036.46	721.644
1039.84	710.946
1043.21	716.59
1046.59	701.554
1049.96	672.423
1053.33	583.92
1056.71	472.657
1060.08	366.775
1063.46	271.116
1066.83	196.419
1070.21	150.26
1073.58	107.59
1076.96	85.2134
1080.33	47.5886
1083.71	31.5618
1087.08	20.2446
1090.46	2.45898
1093.83	5.44434
1097.21	14.9827
1100.58	6.85205
1103.96	4.68506
1107.33	20.5479
1110.71	19.885
1114.08	20.7852
1117.46	3.90137
1120.83	14.239
1124.21	3.9292
1127.58	0.482666
1130.95	16.2541
1134.33	30.637
1137.7	61.9736
1141.08	81.1494
1144.45	78.3403
1147.83	101.254
1151.2	110.874
1154.58	112.716
1157.95	124.542
1161.33	110.412
1164.7	98.3682
1168.08	88.9412
1171.45	87.0703
1174.83	86.3738
1178.2	69.1738
1181.58	68.676
1184.95	72.5271
1188.33	80.9326
1191.7	74.6851
1195.08	72.2676
1198.45	71.0542
1201.83	55.614
1205.2	62.2944
1208.58	53.6775
1211.95	82.3931
1215.33	52.3662
1218.7	38.5523
1222.08	37.7974
1225.45	30.8013
1228.83	6.79541
1232.2	17.9353
1235.58	3.98047
1238.95	8.21509
1242.32	37.5769
1245.7	29.8643
1249.07	34.2512
1252.45	30.3481
1255.82	32.0618
1259.2	32.429
1262.57	20.3877
1265.95	20.0706
1269.32	0.768555
1272.7	4.82837
1276.07	7.38159
1279.45	17.8818
1282.82	14.6067
1286.2	7.98828
1289.57	3.85596
1292.95	15.5915
1296.32	11.9802
1299.7	2.01562
