Measurement: Raman, 780 nm, unoriented, Raman Data Processed
Mineral: Manganbabingtonite
Rruff sample: R140743
Ideal chemistry: Ca_2_Mn^2+^Fe^3+^Si_5_O_14_(OH)
Locality: Iron Cap mine, Aravaipa District, Graham County, Arizona, USA
Source: Rock Currier
Description: Short prismatic dark-greenish crystals, associated with small needle hedenbergite crystals.
Measured chemistry: (Ca_1.94_Mn^2+^_0.06_)(Mn^2+^_0.82_Fe^2+^_0.16_Mg_0.02_)(Fe^3+^_0.98_Al_0.02_)(Si_4.99_Al_0.01_)O_14_(OH)
Raman shift (cm-1)	intensity
112.652	0
116.027	21.054
119.402	49.5089
122.777	141.492
126.152	110.545
129.526	26.9523
132.901	0.357483
136.276	2.54593
139.651	7.15245
143.026	20.3678
146.401	8.56706
149.775	7.76552
153.15	0.256699
156.525	3.69141
159.9	16.1164
163.275	27.9558
166.649	39.8865
170.024	81.8635
173.399	140.833
176.774	149.01
180.149	57.6515
183.524	12.6959
186.898	2.33666
190.273	2.87486
193.648	0.039261
197.023	3.94447
200.398	3.53041
203.773	18.8708
207.147	40.9064
210.522	83.5479
213.897	98.497
217.272	39.7822
220.647	15.3795
224.021	11.1004
227.396	25.2678
230.771	59.8644
234.146	58.1854
237.521	20.1202
240.895	12.0327
244.27	11.8025
247.645	13.338
251.02	16.8342
254.395	23.562
257.769	41.7553
261.144	80.8869
264.519	138.269
267.894	126.61
271.269	57.3799
274.644	33.143
278.018	32.5006
281.393	39.7302
284.768	35.2458
288.143	15.2091
291.518	1.15272
294.892	3.85252
298.267	4.03479
301.642	0.103119
305.017	10.5406
308.392	26.338
311.767	40.0707
315.141	48.7638
318.516	59.6162
321.891	71.9224
325.266	76.297
328.641	88.0891
332.015	84.9761
335.39	56.5618
338.765	39.9905
342.14	36.3918
345.515	47.3916
348.89	79.4293
352.264	87.1549
355.639	47.13
359.014	23.9777
362.389	21.2137
365.764	25.1814
369.139	29.1788
372.513	23.2017
375.888	14.4658
379.263	10.3461
382.638	15.2514
386.013	18.2671
389.387	14.1062
392.762	16.3816
396.137	27.2127
399.512	42.1516
402.887	37.4282
406.262	16.8697
409.636	2.89965
413.011	2.48525
416.386	3.41138
419.761	0.18058
423.136	4.76473
426.51	17.4411
429.885	44.972
433.26	81.3937
436.635	75.8857
440.01	35.212
443.385	12.669
446.759	6.51507
450.134	6.87139
453.509	9.15019
456.884	8.07931
460.259	3.49558
463.633	0.143986
467.008	0.590328
470.383	3.96322
473.758	11.274
477.133	19.7018
480.507	22.5168
483.882	18.4066
487.257	17.362
490.632	29.0446
494.007	54.4779
497.382	79.6611
500.756	63.537
504.131	29.2735
507.506	11.3709
510.881	2.70053
514.256	0.132759
517.63	1.04557
521.005	2.72397
524.38	6.80927
527.755	11.5457
531.13	16.0335
534.505	23.3439
537.879	26.9628
541.254	27.9355
544.629	27.1827
548.004	15.3988
551.379	7.05798
554.753	5.25183
558.128	5.80859
561.503	9.67986
564.878	16.8355
568.253	30.3435
571.628	51.4239
575.002	77.9419
578.377	79.227
581.752	52.3484
585.127	27.5673
588.502	14.5118
591.876	8.0138
595.251	3.66531
598.626	1.0427
602.001	0.154293
605.376	1.14611
608.75	0.764896
612.125	0.714844
615.5	0.763363
618.875	2.76151
622.25	3.0383
625.625	2.43445
629	2.22644
632.374	3.73225
635.749	6.21282
639.124	9.47451
642.499	15.9095
645.874	25.8119
649.248	40.2777
652.623	61.1777
655.998	94.8542
659.373	148.385
662.748	176.216
666.122	122.235
669.497	64.7553
672.872	33.8238
676.247	19.3616
679.622	11.8916
682.996	6.8807
686.371	3.28449
689.746	2.05921
693.121	0.414417
696.496	0.393532
699.871	0.052094
703.245	0.108925
706.62	0.541985
709.995	2.13728
713.37	4.41914
716.745	7.10318
720.12	13.6436
723.494	26.2324
726.869	40.1638
730.244	34.1633
733.619	15.31
736.994	6.86984
740.368	3.26172
743.743	1.82066
747.118	0.782177
750.493	1.82143
753.868	3.18331
757.242	3.03313
760.617	4.30914
763.992	3.96626
767.367	2.7995
770.742	1.8895
774.117	1.61122
777.491	1.08764
780.866	0.934834
784.241	0.472157
787.616	0.754745
790.991	0.161671
794.365	0.121521
797.74	0.453201
801.115	0.333672
804.49	0.144299
807.865	0.46357
811.24	0.360981
814.614	0.975769
817.989	1.22856
821.364	1.05865
824.739	1.74901
828.114	2.21114
831.489	2.64916
834.863	3.37121
838.238	3.95307
841.613	5.7065
844.988	7.67989
848.362	9.41146
851.737	13.8799
855.112	19.8082
858.487	28.3932
861.862	39.6424
865.237	50.0746
868.611	56.0691
871.986	50.3039
875.361	45.2175
878.736	42.8262
882.111	38.6257
885.486	28.8785
888.86	22.562
892.235	20.6775
895.61	23.7926
898.985	24.9105
902.36	22.9704
905.734	20.2917
909.109	12.2004
912.484	5.66324
915.859	2.07944
919.234	0.144463
922.609	1.06763
925.983	0.55171
929.358	0.951187
932.733	0.48562
936.108	1.38975
939.483	2.88259
942.857	4.19561
946.232	4.60858
949.607	7.49443
952.982	14.6055
956.357	19.202
959.731	16.468
963.106	14.7023
966.481	20.0747
969.856	31.886
973.231	39.6771
976.606	30.2337
979.98	19.2604
983.355	16.0011
986.73	19.2709
990.105	22.5535
993.48	32.4898
996.855	52.625
1000.23	92.3993
1003.6	120.43
1006.98	91.3603
1010.35	60.2476
1013.73	42.6324
1017.1	28.7668
1020.48	18.7266
1023.85	13.4187
1027.23	10.3761
1030.6	10.4589
1033.98	13.1859
1037.35	17.4385
1040.73	18.2042
1044.1	11.2507
1047.48	6.62152
1050.85	5.97722
1054.23	6.96901
1057.6	5.58206
1060.98	2.96996
1064.35	1.26615
1067.73	0.694511
1071.1	0.062052
1074.47	0.14868
1077.85	0.151243
1081.22	0.333176
1084.6	0.191439
1087.97	0.312981
1091.35	0.020821
1094.72	0.20788
1098.1	1.00297
1101.47	2.56839
1104.85	4.82634
1108.22	8.24177
1111.6	14.4323
1114.97	14.7728
1118.35	10.5879
1121.72	6.25865
1125.1	4.13442
1128.47	2.71843
1131.85	1.82881
1135.22	1.3064
1138.6	0.759329
1141.97	1.20954
1145.35	0.237341
1148.72	0.213535
1152.1	0.513163
1155.47	0.582981
1158.85	0.479338
1162.22	0.278734
1165.6	0.666569
1168.97	0.231787
1172.35	0.417015
1175.72	0.710281
1179.1	0.435043
1182.47	0.820608
1185.84	0.338133
1189.22	0.685209
1192.59	1.1599
1195.97	0.793457
1199.34	0.801443
1202.72	0.818201
1206.09	0.732212
1209.47	0.42853
1212.84	0.672684
1216.22	0.563402
1219.59	0.615156
1222.97	0.634417
1226.34	0.176783
1229.72	0.033838
1233.09	0.390348
1236.47	0.488041
1239.84	0.111984
1243.22	0.361076
1246.59	0.05547
1249.97	0.555723
1253.34	0.522917
1256.71	0.80603
1260.09	1.29462
1263.46	0.585234
1266.84	0.3507
1270.21	0.547466
1273.59	1.03243
1276.96	0.497107
1280.34	0.007893
