Measurement: Raman, 532 nm, unoriented, Raman Data Processed
Mineral: Manganbabingtonite
Rruff sample: R140743
Ideal chemistry: Ca_2_Mn^2+^Fe^3+^Si_5_O_14_(OH)
Locality: Iron Cap mine, Aravaipa District, Graham County, Arizona, USA
Source: Rock Currier
Description: Short prismatic dark-greenish crystals, associated with small needle hedenbergite crystals.
Measured chemistry: (Ca_1.94_Mn^2+^_0.06_)(Mn^2+^_0.82_Fe^2+^_0.16_Mg_0.02_)(Fe^3+^_0.98_Al_0.02_)(Si_4.99_Al_0.01_)O_14_(OH)
Raman shift (cm-1)	intensity
110.796	0
114.171	4.07832
117.546	27.9048
120.921	36.3105
124.296	77.6388
127.67	32.6919
131.045	6.45539
134.42	1.1637
137.795	9.91011
141.17	34.6486
144.544	42.7535
147.919	12.2887
151.294	2.57272
154.669	2.80667
158.044	0.449707
161.418	11.8002
164.793	18.6348
168.168	27.6223
171.543	53.8491
174.918	77.927
178.293	61.0631
181.667	16.2491
185.042	2.28375
188.417	8.97143
191.792	20.5476
195.167	9.81776
198.542	5.86652
201.916	10.4345
205.291	20.4852
208.666	30.1153
212.041	50.3036
215.416	47.5982
218.79	18.9336
222.165	11.8034
225.54	9.12845
228.915	22.0766
232.29	43.9626
235.664	31.8831
239.039	5.8058
242.414	0.781357
245.789	3.71759
249.164	0.905838
252.538	6.19719
255.913	15.559
259.288	28.3075
262.663	54.4166
266.038	77.3053
269.413	58.9183
272.787	34.9858
276.162	37.8488
279.537	54.1435
282.912	63.9152
286.287	52.5692
289.661	20.4379
293.036	2.93492
296.411	2.16805
299.786	0.263084
303.161	2.51244
306.536	12.3101
309.91	25.3849
313.285	26.7548
316.66	23.2991
320.035	23.8079
323.41	26.6808
326.784	29.2521
330.159	36.2926
333.534	39.1788
336.909	43.6252
340.284	42.5125
343.659	30.6071
347.033	27.8214
350.408	34.9218
353.783	31.4687
357.158	20.8744
360.533	24.0342
363.908	30.6091
367.282	34.1262
370.657	34.9952
374.032	36.5221
377.407	41.2319
380.782	50.2484
384.156	65.7154
387.531	60.2752
390.906	40.9403
394.281	35.9152
397.656	38.2325
401.031	41.7225
404.405	27.7585
407.78	9.19651
411.155	1.03742
414.53	2.91229
417.905	1.17886
421.279	3.18358
424.654	10.6713
428.029	23.401
431.404	41.6009
434.779	49.9069
438.154	33.3633
441.528	11.0425
444.903	2.40649
448.278	0.214447
451.653	0.811874
455.028	0.259293
458.402	0.573502
461.777	2.63534
465.152	9.49219
468.527	19.6379
471.902	31.4157
475.276	45.7812
478.651	50.8658
482.026	41.3989
485.401	27.1929
488.776	21.3831
492.151	27.7935
495.525	36.3443
498.9	38.6943
502.275	25.1058
505.65	8.95067
509.025	2.05841
512.399	0.19915
515.774	0.09816
519.149	2.93842
522.524	9.33584
525.899	17.6584
529.274	28.0705
532.648	39.2463
536.023	48.0306
539.398	44.5309
542.773	37.0316
546.148	28.3264
549.523	18.1592
552.897	13.3561
556.272	12.7867
559.647	13.2135
563.022	17.504
566.396	28.7145
569.771	42.7478
573.146	59.3039
576.521	69.9443
579.896	58.4459
583.271	34.5423
586.645	18.673
590.02	10.1291
593.395	4.0566
596.77	2.67609
600.145	0.530357
603.519	0.169617
606.894	1.06758
610.269	0.764587
613.644	0.311165
617.019	0.086945
620.394	0.54744
623.768	0.584801
627.143	0.880501
630.518	1.38472
633.893	1.68655
637.268	3.94402
640.643	9.00375
644.017	13.44
647.392	22.9986
650.767	34.8468
654.142	51.2336
657.517	70.5102
660.891	87.2913
664.266	80.209
667.641	49.3098
671.016	26.8268
674.391	16.1392
677.765	11.3241
681.14	6.33807
684.515	3.61639
687.89	1.34537
691.265	1.63033
694.64	0.346687
698.014	0.485359
701.389	0.175575
704.764	0.809326
708.139	0.574409
711.514	2.32241
714.889	3.42053
718.263	7.38506
721.638	11.2304
725.013	16.3286
728.388	19.4159
731.763	11.8793
735.137	5.85014
738.512	3.48895
741.887	2.79427
745.262	4.3186
748.637	5.01697
752.011	6.88451
755.386	9.98962
758.761	13.3408
762.136	13.0788
765.511	10.592
768.886	7.484
772.26	5.15804
775.635	3.22909
779.01	1.9108
782.385	1.55369
785.76	0.580666
789.135	0.238831
792.509	0.0252
795.884	0.233475
799.259	0.344574
802.634	0.419647
806.009	0.51458
809.383	0.05703
812.758	0.182129
816.133	0.249962
819.508	0.482124
822.883	0.812386
826.257	1.3703
829.632	2.2806
833.007	2.4056
836.382	2.95705
839.757	2.77785
843.132	4.41322
846.506	4.95528
849.881	8.73241
853.256	11.9821
856.631	16.8368
860.006	23.8416
863.38	31.6514
866.755	39.9023
870.13	43.572
873.505	43.8749
876.88	44.7547
880.255	46.2312
883.629	44.2314
887.004	41.662
890.379	46.518
893.754	58.0426
897.129	68.5261
900.504	64.5662
903.878	53.7396
907.253	39.9889
910.628	20.5139
914.003	8.14282
917.378	1.28154
920.752	1.34914
924.127	2.11124
927.502	1.40861
930.877	0.227173
934.252	3.04928
937.626	8.57883
941.001	15.1432
944.376	21.2827
947.751	30.2194
951.126	47.3048
954.5	65.2901
957.875	65.7908
961.25	48.3182
964.625	43.0986
968	52.82
971.375	69.2191
974.75	65.7266
978.124	41.1478
981.499	24.8977
984.874	19.1834
988.249	19.7664
991.624	21.4245
994.998	30.1733
998.373	48.9007
1001.75	75.934
1005.12	84.5314
1008.5	69.4379
1011.87	56.8234
1015.25	43.8935
1018.62	28.4964
1022	18.0962
1025.37	14.4724
1028.75	14.75
1032.12	18.4865
1035.5	27.9335
1038.87	35.9199
1042.25	30.4359
1045.62	18.899
1048.99	11.2513
1052.37	9.9405
1055.74	11.5382
1059.12	6.99642
1062.49	3.2353
1065.87	1.24477
1069.24	0.472057
1072.62	0.123371
1075.99	0.903728
1079.37	0.626038
1082.74	0.920322
1086.12	0.912937
1089.49	0.235394
1092.87	1.12387
1096.24	1.18389
1099.62	2.86887
1102.99	5.95456
1106.37	8.74458
1109.74	14.4369
1113.12	18.8526
1116.49	17.0685
1119.87	10.4234
1123.24	5.66874
1126.62	4.21517
1129.99	3.15769
1133.37	2.33921
1136.74	1.87779
1140.12	1.3271
1143.49	0.904106
1146.87	0.288757
1150.24	0.880127
1153.62	0.032986
1156.99	0.049755
1160.36	0.335079
1163.74	0.177486
1167.11	0.805523
1170.49	0.623554
1173.86	0.556915
1177.24	0.939819
1180.61	0.858116
1183.99	0.548206
1187.36	1.04013
1190.74	1.34131
1194.11	0.800381
1197.49	1.37828
1200.86	1.24165
1204.24	1.17616
1207.61	0.268658
1210.99	1.25802
1214.36	1.7472
1217.74	0.670551
1221.11	0.18903
1224.49	0.517315
1227.86	0.243839
1231.24	0.173218
1234.61	0.174316
1237.98	1.35368
1241.36	0.31625
1244.73	0.677292
1248.11	0.441536
1251.48	0.890617
1254.86	1.09555
1258.23	1.30395
1261.61	0.932133
1264.98	1.22861
1268.36	0.020599
1271.73	0.819736
1275.11	0.502991
1278.48	0.024384
1281.86	0.37394
1285.23	0.606895
1288.61	1.17687
1291.98	0.49762
1295.36	0.562717
1298.73	0.198467
