Measurement: Raman, 780 nm, unoriented, Raman Data Processed
Mineral: Metalodevite
Rruff sample: R130693
Ideal chemistry: Zn^2+^(U^6+^O_2_)_2_(As^5+^O_4_)_2_10H_2_O
Locality: Riviéral, Lodève, Hérault, Languedoc-Roussillon, France
Source: Rock Currier
Description: Aggregates of pale yellow-green platy crystals
Raman shift (cm-1)	intensity
93.8499	0
97.2247	6.323
100.6	10.0034
103.974	0.155273
107.349	28.1786
110.724	4.49268
114.099	10.1359
117.474	10.5436
120.848	22.7582
124.223	34.6295
127.598	35.0813
130.973	41.203
134.348	17.1874
137.722	6.13721
141.097	0.312134
144.472	7.60998
147.847	1.45142
151.222	3.81042
154.597	42.719
157.971	65.1545
161.346	103.036
164.721	144.196
168.096	197.944
171.471	267.716
174.845	346.135
178.22	429.4
181.595	546.062
184.97	661.811
188.345	751.34
191.72	797.096
195.094	662.174
198.469	439.087
201.844	258.796
205.219	147.155
208.594	80.7571
211.969	44.7947
215.343	25.8374
218.718	11.1
222.093	9.88782
225.468	0.488281
228.843	2.40796
232.217	5.75769
235.592	4.92664
238.967	14.6129
242.342	18.9629
245.717	29.6741
249.091	30.2028
252.466	28.7876
255.841	43.3112
259.216	36.0503
262.591	44.5579
265.966	53.9031
269.34	56.1503
272.715	59.5409
276.09	67.9563
279.465	65.0713
282.84	52.8652
286.214	32.5914
289.589	17.6169
292.964	7.39685
296.339	3.66235
299.714	11.1047
303.089	25.012
306.463	44.5233
309.838	68.7097
313.213	114.929
316.588	199.378
319.963	305.539
323.337	260.648
326.712	113.337
330.087	44.1339
333.462	21.3435
336.837	8.1311
340.212	2.24268
343.586	1.14099
346.961	2.30029
350.336	1.84045
353.711	2.1228
357.086	2.61218
360.46	1.35242
363.835	1.66821
367.21	5.54797
370.585	7.26953
373.96	11.3457
377.334	14.4548
380.709	19.4506
384.084	27.3154
387.459	32.9158
390.834	44.8118
394.209	52.213
397.583	59.2756
400.958	57.6863
404.333	44.5635
407.708	29.0222
411.083	16.2798
414.457	9.73132
417.832	12.082
421.207	21.7931
424.582	12.3909
427.957	17.8362
431.332	22.6509
434.706	36.6217
438.081	47.1509
441.456	66.1194
444.831	89.3994
448.206	99.4425
451.58	122.995
454.955	132.118
458.33	138.973
461.705	138.835
465.08	113.87
468.455	91.7341
471.829	74.2456
475.204	57.4128
478.579	43.2592
481.954	30.8088
485.329	27.9147
488.704	18.8434
492.078	16.6688
495.453	12.9689
498.828	10.7311
502.203	5.4635
505.577	3.54773
508.952	2.68237
512.327	1.46814
515.702	1.08069
519.077	1.75427
522.452	2.60046
525.826	0.650879
529.201	0.319092
532.576	1.18042
535.951	0.845459
539.326	0.89856
542.701	0.218018
546.075	1.21521
549.45	3.01013
552.825	2.94495
556.2	1.3302
559.575	1.53674
562.949	0.94104
566.324	0.194214
569.699	1.85095
573.074	3.91577
576.449	5.65137
579.823	8.16992
583.198	9.25366
586.573	6.01526
589.948	6.27576
593.323	7.00293
596.698	3.78943
600.072	9.08264
603.447	9.67651
606.822	8.67108
610.197	9.4353
613.572	12.8378
616.947	14.64
620.321	14.2149
623.696	12.8791
627.071	9.54828
630.446	12.1469
633.821	15.2935
637.195	17.04
640.57	15.7766
643.945	13.274
647.32	11.8437
650.695	12.8277
654.069	13.3632
657.444	14.2725
660.819	12.7197
664.194	15.2822
667.569	17.5494
670.944	15.3883
674.318	16.7559
677.693	16.5818
681.068	16.1536
684.443	11.5887
687.818	10.3187
691.192	10.1387
694.567	6.18671
697.942	10.3906
701.317	2.53577
704.692	2.82739
708.067	4.96442
711.441	6.49176
714.816	1.2898
718.191	2.23242
721.566	0.003723
724.941	1.87366
728.316	0.628845
731.69	1.62176
735.065	4.88471
738.44	0.109863
741.815	1.01257
745.19	1.0318
748.564	0.998962
751.939	1.17694
755.314	6.00891
758.689	13.6698
762.064	24.0734
765.438	31.5747
768.813	43.9269
772.188	60.2882
775.563	82.7577
778.938	113.68
782.313	169.365
785.687	256.613
789.062	366.327
792.437	542.875
795.812	834.551
799.187	1268.71
802.562	1914.23
805.936	2948.72
809.311	4167.08
812.686	4146.75
816.061	3579.38
819.436	3124.36
822.81	1849.14
826.185	879.804
829.56	439.076
832.935	240.587
836.31	149.703
839.684	96.9139
843.059	60.4873
846.434	37.559
849.809	20.1845
853.184	10.8912
856.558	1.37628
859.933	0.890747
863.308	0.709839
866.683	1.49689
870.058	16.8323
873.433	38.1049
876.807	69.6985
880.182	134.98
883.557	219.103
886.932	228.115
890.307	195.41
893.682	200.886
897.056	221.922
900.431	249.097
903.806	225.276
907.181	131.171
910.556	64.3071
913.93	27.5388
917.305	10.5268
920.68	3.27716
924.055	0.718018
927.43	1.83771
930.804	1.51978
934.179	2.75549
937.554	0.050842
940.929	1.01703
944.304	0.097595
947.679	1.44409
951.053	3.43793
954.428	3.8501
957.803	3.53827
961.178	4.31537
964.553	8.67499
967.928	7.98657
971.302	11.0112
974.677	12.6509
978.052	21.0324
981.427	30.6287
984.802	49.5292
988.176	84.9868
991.551	43.743
994.926	17.6324
998.301	13.6858
1001.68	10.8129
1005.05	6.36426
1008.42	7.28748
1011.8	6.46307
1015.17	11.251
1018.55	8.8476
1021.92	11.0499
1025.3	13.3083
1028.67	15.5389
1032.05	14.3306
1035.42	15.9355
1038.8	10.2912
1042.17	11.2474
1045.55	7.18915
1048.92	7.73633
1052.3	7.37286
1055.67	6.26691
1059.05	7.9718
1062.42	7.89667
1065.8	3.99872
1069.17	5.26868
1072.55	3.74524
1075.92	4.22797
1079.3	4.27704
1082.67	3.52527
1086.05	4.77948
1089.42	4.0791
1092.8	1.15881
1096.17	3.46008
1099.55	2.46875
1102.92	0.889709
1106.3	2.73151
1109.67	1.64911
1113.05	0.220642
1116.42	1.00147
1119.79	0.754639
1123.17	1.79492
1126.54	0.271912
1129.92	5.24439
1133.29	2.67346
1136.67	3.40112
1140.04	3.21777
1143.42	4.48602
1146.79	5.10107
1150.17	3.56824
1153.54	3.8667
1156.92	3.91321
1160.29	3.42731
1163.67	4.32165
1167.04	5.9892
1170.42	6.36694
1173.79	3.81513
1177.17	1.81311
1180.54	3.20538
1183.92	3.1247
1187.29	3.0528
1190.66	3.47742
1194.04	5.34992
1197.41	2.73108
1200.79	10.0392
1204.16	8.23248
1207.54	3.05768
1210.91	1.28223
1214.29	0.374573
1217.66	1.0238
1221.04	2.2544
1224.41	0.966675
1227.79	0.836548
1231.16	0.689697
1234.54	3.56812
1237.91	1.10864
1241.29	6.86212
1244.66	5.50488
1248.04	4.77502
1251.41	0.819763
1254.79	2.84369
1258.16	3.36548
1261.54	1.05133
1264.91	5.11151
1268.29	4.20758
1271.66	7.28632
1275.04	0.723816
1278.41	6.32562
1281.79	0.003174
