Measurement: Raman, 532 nm, unoriented, Raman Data Processed
Mineral: Metavivianite
Rruff sample: R130545
Ideal chemistry: Fe^2+^Fe^3+^_2_(PO_4_)_2_(OH)_2_6H_2_O
Locality: Rapid Creek, Yukon Territory, Canada
Source: Rock Currier
Description: Dull olive-green platy mass, associated with masses of brighter green acicular gormanite on brown siderite. Metavivianite is twinned around [1 -1 0].
Raman shift (cm-1)	intensity
159.49	0
162.383	2.26717
165.275	1.98998
168.168	0.126877
171.061	0.313354
173.953	0.751404
176.846	1.78813
179.739	3.07867
182.632	5.56879
185.524	8.43762
188.417	11.2294
191.31	17.0457
194.202	20.5329
197.095	30.1572
199.988	38.1771
202.881	41.3845
205.773	41.7347
208.666	37.4774
211.559	34.2497
214.451	29.416
217.344	26.9905
220.237	24.0151
223.129	24.7267
226.022	25.7168
228.915	26.6191
231.808	29.2549
234.7	29.9929
237.593	30.8225
240.486	30.2752
243.378	29.939
246.271	31.9174
249.164	35.1994
252.056	40.0181
254.949	42.3603
257.842	47.3355
260.735	50.8654
263.627	53.3942
266.52	53.5564
269.413	54.2748
272.305	58.902
275.198	59.0422
278.091	61.2118
280.983	58.2445
283.876	55.1368
286.769	50.6356
289.661	47.706
292.554	44.0366
295.447	42.6951
298.34	39.9963
301.232	39.1972
304.125	37.5361
307.018	35.4182
309.91	31.5297
312.803	28.1691
315.696	26.6857
318.589	23.0116
321.481	19.8266
324.374	17.3756
327.267	14.8089
330.159	12.7279
333.052	10.9218
335.945	9.37181
338.837	7.21321
341.73	4.6535
344.623	2.77954
347.515	1.25157
350.408	0.57225
353.301	1.46486
356.194	2.72516
359.086	2.29608
361.979	1.51096
364.872	2.12871
367.764	1.03682
370.657	0.941833
373.55	0.311142
376.442	0.210526
379.335	1.06471
382.228	0.967438
385.121	1.94699
388.013	3.4474
390.906	5.57468
393.799	7.35107
396.691	8.6983
399.584	9.68988
402.477	10.4997
405.37	12.621
408.262	13.3999
411.155	14.1228
414.048	14.5432
416.94	14.5399
419.833	13.0791
422.726	11.2121
425.618	10.2576
428.511	9.08166
431.404	8.42806
434.296	6.03343
437.189	6.26056
440.082	5.11571
442.975	5.86134
445.867	6.73473
448.76	9.67545
451.653	10.5309
454.545	12.4445
457.438	14.0438
460.331	16.4215
463.224	16.6271
466.116	19.0794
469.009	21.0005
471.902	21.0319
474.794	22.8698
477.687	22.7136
480.58	24.417
483.473	27.0546
486.365	26.5572
489.258	27.5094
492.151	28.3042
495.043	29.7335
497.936	30.4199
500.829	30.5584
503.721	29.9121
506.614	29.8144
509.507	31.8337
512.399	25.7177
515.292	24.1308
518.185	22.446
521.078	19.5667
523.97	16.653
526.863	13.3557
529.756	10.1612
532.648	8.46954
535.541	6.06012
538.434	4.278
541.327	0.517807
544.219	1.23314
547.112	0.812378
550.005	1.80824
552.897	0.804184
555.79	0.391769
558.683	1.98612
561.575	5.50397
564.468	9.47109
567.361	15.0849
570.254	20.6279
573.146	29.3043
576.039	36.0676
578.932	44.3029
581.824	49.882
584.717	53.7614
587.61	54.328
590.502	52.5042
593.395	48.2906
596.288	41.8228
599.181	35.2544
602.073	28.9505
604.966	23.2533
607.859	17.9086
610.751	15.1273
613.644	10.7285
616.537	8.26443
619.429	6.00368
622.322	4.63593
625.215	3.83746
628.107	2.17812
631	1.57934
633.893	1.64848
636.786	0.835487
639.678	0.9533
642.571	0.231476
645.464	0.443939
648.356	0.624977
651.249	0.154625
654.142	0.028511
657.034	0.318596
659.927	0.116463
662.82	0.626236
665.713	0.095474
668.605	0.479248
671.498	1.01286
674.391	1.1234
677.283	1.34568
680.176	1.32755
683.069	1.85851
685.962	2.05203
688.854	2.19416
691.747	1.93311
694.64	2.93199
697.532	3.04243
700.425	3.19482
703.318	2.68256
706.21	2.67311
709.103	2.47479
711.996	2.99778
714.889	2.64657
717.781	2.1384
720.674	1.71076
723.567	2.19814
726.459	0.420471
729.352	1.83086
732.245	1.66886
735.137	1.25329
738.03	1.14491
740.923	1.66705
743.816	1.08841
746.708	0.689445
749.601	0.879532
752.494	0.655281
755.386	0.149055
758.279	0.503761
761.172	0.591408
764.064	0.141716
766.957	0.818642
769.85	0.128754
772.742	0.700485
775.635	1.19431
778.528	0.944542
781.421	0.529373
784.313	0.727119
787.206	1.3543
790.099	2.23994
792.991	1.17009
795.884	3.50704
798.777	1.31155
801.669	2.37931
804.562	1.75947
807.455	2.22242
810.348	2.04359
813.24	3.08237
816.133	2.66751
819.026	3.46408
821.918	2.67228
824.811	3.49097
827.704	4.36711
830.597	4.13729
833.489	4.64279
836.382	5.34285
839.275	5.74715
842.167	6.20216
845.06	6.0365
847.953	5.24516
850.846	5.81645
853.738	4.27948
856.631	4.89751
859.524	4.56607
862.416	4.02371
865.309	4.60339
868.202	3.34869
871.094	3.2596
873.987	2.35693
876.88	1.47189
879.773	0.256523
882.665	0.612984
885.558	0.70488
888.451	0.466537
891.343	0.592705
894.236	0.789742
897.129	0.411377
900.021	0.068611
902.914	0.606674
905.807	1.08135
908.699	2.76205
911.592	4.30147
914.485	5.58751
917.378	8.42367
920.27	11.2744
923.163	15.1375
926.056	17.9958
928.948	22.2397
931.841	25.22
934.734	27.9464
937.626	30.0435
940.519	33.7614
943.412	37.4207
946.305	38.9142
949.197	40.8395
952.09	42.5769
954.983	43.2746
957.875	46.273
960.768	47.1677
963.661	45.6338
966.553	42.5033
969.446	38.6268
972.339	34.2516
975.232	29.4286
978.124	25.2738
981.017	20.7435
983.91	16.3557
986.802	13.2982
989.695	9.20189
992.588	10.9927
995.481	5.87062
998.373	4.81271
1001.27	3.92419
1004.16	1.93892
1007.05	1.63867
1009.94	1.01765
1012.84	0.450729
1015.73	1.18099
1018.62	0.094498
1021.51	0.227768
1024.41	0.195122
1027.3	0.411621
1030.19	0.711006
1033.09	1.92026
1035.98	0.567635
1038.87	2.29562
1041.76	1.64521
1044.66	2.56672
1047.55	3.23063
1050.44	3.84666
1053.33	4.55818
1056.23	4.5422
1059.12	5.96191
1062.01	5.73543
1064.9	6.00493
1067.8	6.00451
1070.69	6.29205
1073.58	6.97157
1076.48	7.41107
1079.37	5.91281
1082.26	6.76566
1085.15	6.43776
1088.05	6.93812
1090.94	7.47771
1093.83	7.98794
1096.72	7.54324
1099.62	8.14146
1102.51	8.08795
1105.4	7.49722
1108.3	7.95465
1111.19	7.65904
1114.08	7.15083
1116.97	6.21229
1119.87	4.96799
1122.76	3.99086
1125.65	3.80382
1128.55	2.07242
1131.44	1.19743
1134.33	0.578964
1137.22	0.025414
1140.12	0.101784
1143.01	0.243729
1145.9	0.788147
1148.79	0.350143
1151.69	0.797386
1154.58	0.465218
1157.47	0.616455
1160.36	1.17285
1163.26	1.62151
1166.15	1.83234
1169.04	1.98208
1171.93	1.82065
1174.83	3.16702
1177.72	2.77543
1180.61	2.76844
1183.51	2.82423
1186.4	3.70654
1189.29	3.71362
1192.18	4.26462
1195.08	4.66947
1197.97	4.05954
1200.86	3.43095
1203.76	3.35174
1206.65	3.62674
1209.54	2.99537
1212.43	2.83341
1215.33	2.57008
1218.22	1.77105
1221.11	2.30429
1224	2.25141
1226.9	1.87067
1229.79	1.39149
1232.68	2.00093
1235.58	1.29938
1238.47	2.03631
1241.36	0.840607
1244.25	2.08421
1247.14	1.95595
1250.04	1.24388
1252.93	1.18449
1255.82	3.32131
1258.72	0.778748
1261.61	0.896507
1264.5	0.745476
1267.39	0.977654
1270.29	0.752106
1273.18	0.603683
1276.07	0.783905
1278.96	0.875374
1281.86	0.130447
1284.75	0.52317
1287.64	0.837585
1290.54	0.089211
1293.43	0.532089
1296.32	0.178551
1299.21	0.042786
