Measurement: Raman, 780 nm, unoriented, Raman Data Processed
Mineral: Mikenewite
Rruff sample: R210021
Ideal chemistry: Mn^2+^(S^4+^O_3_)3H_2_O
Locality: Ojuela mine, Mapimí, Municipio de Mapimí, Durango, Mexico
Source: Bob Jenkins
Description: Yellowish spheres, associated with adamite and lotharmeyerite, type sample
Measured chemistry: (Mn_0.85_Zn_0.11_Fe_0.04_Ca_0.02_)S_0.99_O_3_·3H_2_O ;  The sample is prone to the electron beam damage, but it did not seem to affect the relative proportions of cations.
Raman shift (cm-1)	intensity
93.3674	0
96.7422	4.34027
100.117	6.18887
103.492	17.4902
106.867	4.3045
110.242	0.335175
113.616	11.2773
116.991	39.0363
120.366	67.9603
123.741	102.497
127.116	100.439
130.49	76.4897
133.865	33.6398
137.24	13.889
140.615	5.26648
143.99	3.8849
147.364	3.79463
150.739	0.224472
154.114	12.655
157.489	8.06663
160.864	15.6018
164.239	31.1093
167.613	58.061
170.988	89.7652
174.363	120.062
177.738	130.795
181.113	108.839
184.488	90.5258
187.862	86.4893
191.237	89.1941
194.612	100.191
197.987	106.509
201.362	98.5621
204.736	85.2175
208.111	62.1444
211.486	41.6668
214.861	24.7196
218.236	21.7817
221.611	21.0232
224.985	22.9437
228.36	31.1971
231.735	50.7081
235.11	62.458
238.485	66.7089
241.859	65.3907
245.234	59.4952
248.609	48.6291
251.984	39.0578
255.359	31.2455
258.733	31.2554
262.108	23.1222
265.483	21.3337
268.858	16.579
272.233	16.6662
275.608	17.5497
278.982	17.5309
282.357	15.8148
285.732	9.07683
289.107	2.32777
292.482	1.64739
295.856	2.07012
299.231	2.80753
302.606	0.994308
305.981	0.01606
309.356	2.60623
312.731	9.46018
316.105	8.66756
319.48	10.3821
322.855	12.9641
326.23	13.2112
329.605	11.2864
332.979	9.1767
336.354	9.58247
339.729	9.80852
343.104	15.0784
346.479	17.7911
349.854	19.7223
353.228	20.6065
356.603	20.0176
359.978	16.3206
363.353	11.4209
366.728	8.57475
370.103	6.6431
373.477	2.96287
376.852	2.90311
380.227	0.933731
383.602	0.267578
386.977	1.72858
390.351	1.17499
393.726	1.47884
397.101	0.912819
400.476	1.37787
403.851	1.12744
407.226	1.93712
410.6	1.85056
413.975	2.75624
417.35	5.0628
420.725	4.54481
424.1	7.62474
427.474	9.45116
430.849	15.2322
434.224	19.4503
437.599	23.6107
440.974	28.9839
444.349	37.9328
447.723	47.413
451.098	60.8212
454.473	76.0996
457.848	94.1864
461.223	108.965
464.597	111.987
467.972	109.379
471.347	104.395
474.722	101.796
478.097	108.415
481.471	125.151
484.846	142.04
488.221	155.682
491.596	156.774
494.971	142.923
498.346	129.904
501.72	115.121
505.095	93.8498
508.47	73.8225
511.845	54.7136
515.22	42.8285
518.595	31.059
521.969	21.1504
525.344	10.8937
528.719	8.7647
532.094	5.79158
535.469	2.93086
538.843	1.97732
542.218	0.553429
545.593	1.22628
548.968	0.362755
552.343	0.586952
555.717	0.963669
559.092	0.549088
562.467	0.269333
565.842	1.56985
569.217	0.967636
572.592	1.45519
575.966	1.47063
579.341	1.16132
582.716	0.964607
586.091	1.20261
589.466	0.232735
592.841	0.281586
596.215	0.302628
599.59	2.53719
602.965	0.09127
606.34	1.45918
609.715	1.69699
613.089	4.43375
616.464	5.04415
619.839	5.26539
623.214	9.70727
626.589	9.32943
629.963	10.4196
633.338	9.56718
636.713	7.86653
640.088	7.53279
643.463	6.80582
646.838	6.86173
650.212	3.78433
653.587	5.62426
656.962	5.40321
660.337	6.2223
663.712	3.00027
667.087	3.76308
670.461	4.81127
673.836	2.16183
677.211	1.20738
680.586	1.53906
683.961	1.31333
687.335	3.00238
690.71	0.703148
694.085	0.950752
697.46	0.53091
700.835	0.367115
704.21	0.526363
707.584	0.595722
710.959	2.46158
714.334	0.761135
717.709	1.52215
721.084	2.71019
724.458	2.63113
727.833	2.3295
731.208	1.29872
734.583	2.06686
737.958	4.07117
741.332	2.52743
744.707	3.01247
748.082	4.13714
751.457	2.35518
754.832	0.191135
758.207	2.57514
761.581	4.18185
764.956	3.9652
768.331	3.20421
771.706	4.70436
775.081	2.96972
778.455	4.44873
781.83	6.7325
785.205	8.54968
788.58	7.71564
791.955	8.82909
795.33	8.58365
798.704	9.98325
802.079	8.3578
805.454	8.65737
808.829	8.85757
812.204	8.62125
815.578	6.04264
818.953	6.56149
822.328	5.16055
825.703	2.35463
829.078	0.028488
832.453	0.523125
835.827	0.802711
839.202	1.36491
842.577	3.66592
845.952	1.34007
849.327	2.12674
852.702	1.97714
856.076	1.2623
859.451	3.52576
862.826	5.41403
866.201	5.91292
869.576	7.04197
872.95	7.74837
876.325	4.86691
879.7	6.52937
883.075	4.47322
886.45	3.71658
889.824	5.72954
893.199	8.95164
896.574	15.7565
899.949	19.7675
903.324	27.294
906.698	31.9535
910.073	36.5879
913.448	37.564
916.823	40.8561
920.198	43.1243
923.573	49.0609
926.947	56.8738
930.322	57.8425
933.697	55.049
937.072	58.7349
940.447	60.3371
943.822	70.3845
947.196	85.4292
950.571	107.768
953.946	139.52
957.321	178.498
960.696	229.24
964.07	305.248
967.445	389.433
970.82	478.44
974.195	535.356
977.57	533.321
980.945	453.291
984.319	324.342
987.694	222.652
991.069	148.92
994.444	99.2471
997.819	66.6775
1001.19	44.2713
1004.57	29.3118
1007.94	18.4561
1011.32	9.15308
1014.69	4.37115
1018.07	1.23849
1021.44	0.993935
1024.82	1.46798
1028.19	1.83608
1031.57	0.762039
1034.94	1.4299
1038.32	0.905418
1041.69	1.42202
1045.07	1.25363
1048.44	1.06448
1051.82	0.062172
1055.19	0.942928
1058.57	2.43833
1061.94	1.40197
1065.32	4.55628
1068.69	3.9441
1072.07	6.14928
1075.44	6.16965
1078.81	8.5113
1082.19	7.39456
1085.56	7.64019
1088.94	8.70343
1092.31	10.2668
1095.69	8.24789
1099.06	10.9859
1102.44	10.6259
1105.81	9.76984
1109.19	7.77037
1112.56	8.05181
1115.94	7.9182
1119.31	6.68219
1122.69	4.47848
1126.06	5.99654
1129.44	5.56139
1132.81	5.97055
1136.19	3.76444
1139.56	4.48323
1142.94	3.15435
1146.31	3.11368
1149.68	2.69195
1153.06	2.79289
1156.43	3.28464
1159.81	3.80097
1163.18	3.6011
1166.56	3.91602
1169.93	1.93271
1173.31	2.68012
1176.68	2.39753
1180.06	0.029228
1183.43	3.64354
1186.81	2.71558
1190.18	3.01579
1193.56	1.65331
1196.93	0.863792
1200.31	0.907501
1203.68	0.47464
1207.06	0.047394
1210.43	2.41915
1213.81	1.15312
1217.18	3.61736
1220.56	2.58204
1223.93	1.64792
1227.31	0.980999
1230.68	0.170033
1234.06	1.06906
1237.43	1.75256
1240.81	3.3004
1244.18	0.03513
1247.56	3.53138
1250.93	2.68733
1254.31	1.50025
1257.68	1.0803
1261.05	1.98894
1264.43	0.032627
1267.8	1.30923
1271.18	2.74722
1274.55	1.42468
1277.93	0.783272
1281.3	0.281113
