Measurement: Raman, 532 nm, unoriented, Raman Data Processed
Mineral: Mikenewite
Rruff sample: R210021
Ideal chemistry: Mn^2+^(S^4+^O_3_)3H_2_O
Locality: Ojuela mine, Mapimí, Municipio de Mapimí, Durango, Mexico
Source: Bob Jenkins
Description: Yellowish spheres, associated with adamite and lotharmeyerite, type sample
Measured chemistry: (Mn_0.85_Zn_0.11_Fe_0.04_Ca_0.02_)S_0.99_O_3_·3H_2_O ;  The sample is prone to the electron beam damage, but it did not seem to affect the relative proportions of cations.
Raman shift (cm-1)	intensity
88.1367	0
91.5115	12.3509
94.8863	8.93317
98.2612	11.2111
101.636	3.6618
105.011	2.56119
108.386	2.75424
111.76	4.699
115.135	27.1435
118.51	53.091
121.885	72.9874
125.26	97.251
128.635	99.2237
132.009	95.2778
135.384	68.6644
138.759	58.5178
142.134	57.0101
145.509	42.3202
148.883	40.8869
152.258	38.7221
155.633	31.9424
159.008	25.6663
162.383	22.1529
165.757	38.4831
169.132	59.3647
172.507	91.1037
175.882	113.948
179.257	111.339
182.632	93.7215
186.006	86.8928
189.381	86.163
192.756	93.2981
196.131	96.3381
199.506	91.31
202.881	81.633
206.255	61.4997
209.63	38.8306
213.005	22.4704
216.38	15.9551
219.755	14.4665
223.129	21.7826
226.504	36.0942
229.879	68.014
233.254	96.0253
236.629	126.96
240.004	130.253
243.378	123.149
246.753	111.676
250.128	84.3988
253.503	61.546
256.878	45.7915
260.252	39.7506
263.627	31.8275
267.002	22.7276
270.377	19.1295
273.752	23.4799
277.127	20.3395
280.501	20.5606
283.876	11.229
287.251	4.60602
290.626	4.30533
294.001	4.3884
297.375	4.9082
300.75	0.830536
304.125	2.21414
307.5	1.43857
310.875	6.36255
314.25	11.0532
317.624	19.0368
320.999	28.239
324.374	25.8765
327.749	21.7295
331.124	17.0644
334.498	22.7692
337.873	23.4323
341.248	27.6336
344.623	30.4431
347.998	35.2442
351.373	34.8575
354.747	36.5035
358.122	31.6824
361.497	26.8213
364.872	18.8019
368.247	18.5994
371.621	12.6884
374.996	10.3445
378.371	1.66052
381.746	2.65814
385.121	4.2995
388.495	2.34756
391.87	0.636688
395.245	1.38785
398.62	2.47876
401.995	1.79364
405.37	0.317474
408.744	0.839508
412.119	7.54748
415.494	5.75134
418.869	6.81998
422.244	9.95221
425.618	15.861
428.993	22.4488
432.368	32.8976
435.743	40.6344
439.118	56.2692
442.493	71.5819
445.867	92.3475
449.242	118.275
452.617	143.439
455.992	178.713
459.367	208.258
462.741	233.266
466.116	236.231
469.491	225.071
472.866	205.282
476.241	190.536
479.615	191.073
482.99	208.367
486.365	223.539
489.74	220.14
493.115	206.474
496.49	179.019
499.864	157.614
503.239	129.032
506.614	98.4175
509.989	73.0467
513.364	53.3585
516.739	40.4569
520.113	28.8563
523.488	19.056
526.863	12.9675
530.238	9.74872
533.613	4.53876
536.987	0.182129
540.362	3.02826
543.737	0.684143
547.112	3.84155
550.487	0.796722
553.861	0.017822
557.236	2.03464
560.611	5.34259
563.986	3.08997
567.361	2.12708
570.736	2.23352
574.11	4.36353
577.485	2.0567
580.86	1.67206
584.235	8.05786
587.61	4.90762
590.985	5.15546
594.359	8.12637
597.734	7.05173
601.109	10.5342
604.484	5.89096
607.859	11.8041
611.233	15.4191
614.608	15.7514
617.983	15.3441
621.358	18.8986
624.733	25.0343
628.107	22.5817
631.482	25.9412
634.857	27.6306
638.232	21.5897
641.607	19.8843
644.982	13.1315
648.356	16.0886
651.731	16.5257
655.106	15.6403
658.481	10.5385
661.856	14.0723
665.231	11.8206
668.605	15.0413
671.98	7.86514
675.355	6.15637
678.73	1.75253
682.105	3.51724
685.479	1.3454
688.854	2.82446
692.229	1.09405
695.604	4.95782
698.979	3.84256
702.354	1.53259
705.728	2.9725
709.103	7.73993
712.478	3.09134
715.853	5.49268
719.227	9.37247
722.602	7.81158
725.977	5.02792
729.352	4.98129
732.727	5.2912
736.102	11.4668
739.476	9.42853
742.851	5.28934
746.226	7.83615
749.601	5.41864
752.976	8.06604
756.351	3.58765
759.725	6.03647
763.1	3.91431
766.475	9.37073
769.85	11.7648
773.225	8.67438
776.599	4.45731
779.974	11.9129
783.349	12.6675
786.724	14.48
790.099	20.2864
793.473	15.3359
796.848	17.9771
800.223	12.8573
803.598	13.1143
806.973	14.6549
810.348	16.2901
813.722	11.0287
817.097	9.67908
820.472	9.88193
823.847	6.24695
827.222	3.27124
830.597	0.457733
833.971	0.851288
837.346	0.45285
840.721	5.75204
844.096	2.18942
847.471	2.31397
850.846	0.051239
854.22	2.06763
857.595	1.01093
860.97	13.6955
864.345	15.0248
867.72	17.5508
871.094	22.2161
874.469	17.5025
877.844	10.0015
881.219	4.62991
884.594	1.61914
887.968	0.875427
891.343	5.6759
894.718	1.82538
898.093	9.51453
901.468	21.3475
904.842	28.1309
908.217	39.3079
911.592	31.9774
914.967	35.1299
918.342	43.4596
921.717	44.2793
925.091	51.7902
928.466	59.9044
931.841	69.7627
935.216	72.1094
938.591	90.219
941.966	115.399
945.34	136.895
948.715	185
952.09	249.614
955.465	324.728
958.84	425.704
962.214	568.202
965.589	744.542
968.964	938.797
972.339	1137.52
975.714	1263.82
979.088	1194.56
982.463	967.928
985.838	702.901
989.213	478.202
992.588	323.2
995.963	227.209
999.337	155.254
1002.71	104.325
1006.09	74.2429
1009.46	52.2
1012.84	32.1298
1016.21	7.67923
1019.59	4.99286
1022.96	2.30997
1026.34	3.37473
1029.71	1.14029
1033.09	10.4752
1036.46	5.9183
1039.84	1.96088
1043.21	3.76041
1046.59	4.81043
1049.96	5.35556
1053.33	0.898834
1056.71	0.522156
1060.08	0.936035
1063.46	2.71814
1066.83	5.16089
1070.21	11.3925
1073.58	14.9699
1076.96	13.1197
1080.33	12.7291
1083.71	21.7724
1087.08	18.7203
1090.46	20.1543
1093.83	21.9518
1097.21	18.5772
1100.58	23.73
1103.96	20.4808
1107.33	22.1553
1110.71	15.6646
1114.08	15.5041
1117.46	15.0421
1120.83	20.646
1124.21	8.45065
1127.58	7.14645
1130.95	7.12088
1134.33	9.72586
1137.7	13.9044
1141.08	10.3339
1144.45	10.1331
1147.83	14.5136
1151.2	9.07532
1154.58	3.47327
1157.95	8.05887
1161.33	6.64429
1164.7	5.94043
1168.08	1.96674
1171.45	9.41071
1174.83	8.19601
1178.2	8.42096
1181.58	7.7569
1184.95	6.58054
1188.33	6.06332
1191.7	6.94342
1195.08	5.18784
1198.45	5.75891
1201.83	3.17874
1205.2	7.5892
1208.58	0.791351
1211.95	4.89319
1215.33	1.94275
1218.7	4.78317
1222.08	4.68307
1225.45	2.44604
1228.83	2.13998
1232.2	4.8855
1235.58	0.893707
1238.95	1.08212
1242.32	7.45822
1245.7	2.46262
1249.07	4.90668
1252.45	5.53153
1255.82	3.93063
1259.2	9.70538
1262.57	6.77881
1265.95	8.49432
1269.32	6.33557
1272.7	4.60156
1276.07	1.95712
1279.45	3.01199
1282.82	5.13141
1286.2	6.81528
1289.57	10.262
1292.95	3.99625
1296.32	1.24072
1299.7	3.16898
