Measurement: Raman, 532 nm, unoriented, Raman Data Processed
Mineral: Montgomeryite
Rruff sample: R140664
Ideal chemistry: Ca_4_MgAl_4_(PO_4_)_6_(OH)_4_12H_2_O
Locality: Foote Mineral Company mine, Kings Mountain, North Carolina, USA
Source: Rock Currier
Description: Radial aggregates of colorless, bladed to platy crystals
Raman shift (cm-1)	intensity
131.527	0
134.902	5.21704
138.277	39.1352
141.652	55.3481
145.026	60.1297
148.401	72.4816
151.776	89.219
155.151	96.1415
158.526	75.5856
161.901	47.2463
165.275	28.1769
168.65	11.0344
172.025	11.1448
175.4	28.2191
178.775	16.8272
182.149	17.167
185.524	19.6734
188.899	21.5521
192.274	27.7906
195.649	30.9409
199.024	23.3398
202.398	13.0102
205.773	4.01978
209.148	0.605469
212.523	0.589172
215.898	2.68085
219.273	2.23297
222.647	0.527283
226.022	1.48236
229.397	3.87482
232.772	6.33929
236.147	8.81958
239.521	9.48352
242.896	5.81372
246.271	4.1806
249.646	5.617
253.021	3.80084
256.396	4.33758
259.77	2.56354
263.145	4.46051
266.52	7.42896
269.895	8.71912
273.27	11.3835
276.644	14.3943
280.019	17.0305
283.394	19.0342
286.769	24.043
290.144	30.6738
293.519	28.1713
296.893	28.2436
300.268	19.4833
303.643	12.475
307.018	6.76721
310.392	6.54443
313.767	5.26202
317.142	5.85114
320.517	5.31805
323.892	4.55756
327.267	3.49933
330.641	6.13293
334.016	8.07043
337.391	11.8625
340.766	4.06427
344.141	4.6463
347.515	5.01752
350.89	3.16815
354.265	1.59747
357.64	0.485901
361.015	0.780823
364.39	1.34833
367.764	3.10754
371.139	6.36914
374.514	9.67029
377.889	13.9371
381.264	17.7178
384.639	25.2345
388.013	31.9525
391.388	36.8321
394.763	32.1171
398.138	25.3681
401.513	13.1252
404.887	5.4422
408.262	0.415527
411.637	0.346924
415.012	0.28064
418.387	1.09418
421.762	1.88281
425.136	1.24878
428.511	5.25037
431.886	3.26587
435.261	9.87189
438.636	16.8761
442.01	28.0624
445.385	42.2504
448.76	58.2308
452.135	69.8045
455.51	78.5212
458.885	72.5158
462.259	56.5105
465.634	40.4355
469.009	27.2915
472.384	27.5596
475.759	22.712
479.133	18.9069
482.508	14.4924
485.883	11.0522
489.258	9.19427
492.633	10.8494
496.007	15.4619
499.382	25.8873
502.757	40.0729
506.132	53.5281
509.507	57.4381
512.882	58.6554
516.256	42.3398
519.631	32.1216
523.006	23.7935
526.381	23.3951
529.756	21.0253
533.13	19.7805
536.505	14.494
539.88	12.6899
543.255	12.9936
546.63	7.87677
550.005	1.01312
553.379	1.0166
556.754	0.26709
560.129	0.734253
563.504	2.06433
566.879	1.22211
570.254	3.68317
573.628	11.9036
577.003	18.8265
580.378	26.2559
583.753	34.5117
587.128	47.7645
590.502	48.9228
593.877	46.3688
597.252	49.7142
600.627	44.0949
604.002	37.7324
607.376	29.5655
610.751	24.1586
614.126	15.5394
617.501	5.53534
620.876	2.44665
624.25	0.111084
627.625	2.87909
631	4.07568
634.375	5.58758
637.75	7.94769
641.125	7.87781
644.5	5.32416
647.874	4.56451
651.249	7.62592
654.624	7.03961
657.999	6.29535
661.374	3.16034
664.748	5.35339
668.123	4.29584
671.498	3.37372
674.873	0.49884
678.248	0.699219
681.622	1.66968
684.997	0.328979
688.372	0.657776
691.747	2.11133
695.122	0.548706
698.496	0.797424
701.871	0.484375
705.246	0.217102
708.621	2.16156
711.996	1.72015
715.371	2.4021
718.745	2.26373
722.12	0.011353
725.495	5.71655
728.87	4.55359
732.245	6.87476
735.62	6.36304
738.994	4.79816
742.369	7.00415
745.744	4.91333
749.119	4.61151
752.494	3.99292
755.868	3.87866
759.243	0.687134
762.618	2.32568
765.993	3.3949
769.368	1.27844
772.742	6.01434
776.117	3.04852
779.492	4.09662
782.867	1.33594
786.242	2.98596
789.617	2.0874
792.991	7.02582
796.366	8.08783
799.741	6.02686
803.116	7.84143
806.491	7.87054
809.865	10.2522
813.24	7.62085
816.615	11.627
819.99	14.5098
823.365	12.743
826.74	13.6446
830.114	13.5479
833.489	13.2465
836.864	15.8441
840.239	16.5903
843.614	20.3866
846.989	9.51398
850.363	9.9295
853.738	11.105
857.113	8.23145
860.488	13.2283
863.863	10.2946
867.237	10.1284
870.612	8.01819
873.987	2.26294
877.362	1.45239
880.737	2.13483
884.111	0.45282
887.486	0.825195
890.861	2.11633
894.236	2.41589
897.611	0.983643
900.986	0.624573
904.36	0.595398
907.735	2.37982
911.11	4.9928
914.485	7.02063
917.86	7.34033
921.235	8.64941
924.609	9.40076
927.984	12.2681
931.359	8.93079
934.734	6.89624
938.109	5.56055
941.483	1.37512
944.858	5.59216
948.233	0.722168
951.608	1.58252
954.983	6.36353
958.357	15.0342
961.732	22.6895
965.107	35.2217
968.482	41.4347
971.857	65.5204
975.232	89.6934
978.606	99.4187
981.981	98.3425
985.356	82.4616
988.731	72.5559
992.106	78.1449
995.481	102.815
998.855	144.69
1002.23	199.451
1005.61	255.692
1008.98	289.144
1012.36	293.376
1015.73	279.962
1019.1	229.139
1022.48	146.647
1025.85	95.6647
1029.23	59.295
1032.6	37.6829
1035.98	24.7949
1039.35	14.7376
1042.73	11.2263
1046.1	7.02771
1049.48	7.42395
1052.85	0.302856
1056.23	0.194824
1059.6	3.38635
1062.98	2.34778
1066.35	0.213623
1069.73	0.230835
1073.1	6.48987
1076.48	5.40832
1079.85	12.0858
1083.23	13.6754
1086.6	17.0353
1089.97	16.3152
1093.35	12.0581
1096.72	10.5182
1100.1	5.48743
1103.47	6.6499
1106.85	2.02161
1110.22	8.68872
1113.6	10.1751
1116.97	14.5104
1120.35	13.9957
1123.72	18.4376
1127.1	16.6461
1130.47	11.8791
1133.85	8.65271
1137.22	11.4509
1140.6	14.6328
1143.97	21.2151
1147.35	24.9078
1150.72	23.9893
1154.1	20.8591
1157.47	12.733
1160.85	8.20325
1164.22	4.71472
1167.6	1.83752
1170.97	0.335938
1174.35	1.13867
1177.72	0.489136
1181.1	0.365601
1184.47	4.0647
1187.85	0.265015
1191.22	7.16357
1194.6	4.21228
1197.97	2.05176
1201.34	1.55103
1204.72	3.06812
1208.09	5.44531
1211.47	4.46838
1214.84	3.34424
1218.22	1.49561
1221.59	7.18213
1224.97	6.56726
1228.34	7.56909
1231.72	6.8186
1235.09	4.81811
1238.47	3.42651
1241.84	3.07202
1245.22	1.94409
1248.59	5.96643
1251.97	9.88586
1255.34	5.35583
1258.72	6.88049
1262.09	3.77905
1265.47	5.39429
1268.84	4.60742
1272.21	1.60181
1275.59	0.437744
1278.96	0.417114
1282.34	2.33435
1285.71	4.11169
1289.09	8.40894
1292.46	5.08948
1295.84	1.02307
1299.21	2.63269
