Measurement: Raman, 532 nm, unoriented, Raman Data Processed
Mineral: Moorhouseite
Rruff sample: R130745
Ideal chemistry: Co^2+^S^6+^O_4_6H_2_O
Locality: Bou Azer, Tazenakht, Ouarzazate Province, Souss-Massa-Dra√¢ Region, Morocco
Source: Donald Doell
Description: Light-pinkish fine grains, associated with pink or dark pink spherocobaltite.
Raman shift (cm-1)	intensity
139.241	0
142.616	0.105164
145.991	12.0095
149.365	11.904
152.74	17.5405
156.115	16.7175
159.49	4.00403
162.865	5.29816
166.24	0.760742
169.614	0.014099
172.989	1.58997
176.364	6.32275
179.739	4.46497
183.114	8.20081
186.488	11.6476
189.863	12.3687
193.238	12.0183
196.613	11.984
199.988	10.481
203.363	12.5679
206.737	13.3616
210.112	18.7695
213.487	21.9874
216.862	27.724
220.237	21.4248
223.612	15.5535
226.986	12.2106
230.361	2.98334
233.736	4.01331
237.111	7.17474
240.486	2.49988
243.86	0.237183
247.235	0.859619
250.61	5.45209
253.985	5.35944
257.36	10.4136
260.735	11.569
264.109	10.3118
267.484	12.0548
270.859	12.2547
274.234	11.9775
277.609	11.1726
280.983	6.82648
284.358	7.94141
287.733	8.21204
291.108	4.80151
294.483	0.423157
297.858	1.97925
301.232	3.38672
304.607	6.25214
307.982	3.44293
311.357	1.82617
314.732	1.17792
318.106	1.10492
321.481	2.54279
324.856	2.61969
328.231	6.68213
331.606	5.03876
334.981	3.98944
338.355	5.00409
341.73	5.70282
345.105	2.96368
348.48	3.91309
351.855	4.14557
355.229	1.27356
358.604	3.43988
361.979	1.56885
365.354	4.67096
368.729	3.9007
372.103	0.793152
375.478	0.703125
378.853	1.86011
382.228	0.995972
385.603	0.731384
388.978	1.17828
392.352	1.58459
395.727	0.995728
399.102	2.16907
402.477	3.19873
405.852	6.42841
409.226	9.37378
412.601	15.4048
415.976	28.8084
419.351	36.2428
422.726	38.6797
426.101	31.1763
429.475	23.4116
432.85	16.3522
436.225	16.8639
439.6	15.0244
442.975	18.3857
446.349	23.5849
449.724	28.5836
453.099	30.2028
456.474	32.8464
459.849	29.1656
463.224	26.3234
466.598	24.4947
469.973	29.9717
473.348	33.462
476.723	40.0261
480.098	50.0195
483.473	60.6345
486.847	63.1118
490.222	66.0976
493.597	63.8483
496.972	54.1766
500.347	48.4096
503.721	37.8216
507.096	27.9639
510.471	21.3772
513.846	14.9801
517.221	8.80603
520.596	3.45453
523.97	2.40619
527.345	2.78613
530.72	1.75104
534.095	0.635193
537.47	1.07941
540.844	0.221558
544.219	1.99988
547.594	0.297974
550.969	0.718811
554.344	1.52203
557.718	0.73822
561.093	0.654541
564.468	0.268311
567.843	0.11322
571.218	3.21149
574.592	3.27063
577.967	3.49701
581.342	6.43408
584.717	12.0458
588.092	16.6221
591.467	22.1577
594.841	36.1159
598.216	52.4444
601.591	73.1531
604.966	82.9199
608.341	66.2734
611.716	54.2486
615.09	41.9501
618.465	41.3643
621.84	36.8386
625.215	30.9346
628.59	23.3772
631.964	17.3
635.339	10.9992
638.714	5.74213
642.089	3.42658
645.464	4.84186
648.838	7.34155
652.213	11.6431
655.588	13.6323
658.963	13.3064
662.338	13.8396
665.713	7.30566
669.087	10.8179
672.462	14.3795
675.837	16.3705
679.212	19.1857
682.587	21.1149
685.962	23.944
689.336	15.6101
692.711	10.7206
696.086	7.03845
699.461	2.13239
702.836	5.3913
706.21	0.770813
709.585	0.237732
712.96	1.10199
716.335	2.55896
719.71	1.5697
723.085	1.75269
726.459	0.180054
729.834	0.298462
733.209	1.30225
736.584	3.19525
739.959	3.77692
743.333	4.38293
746.708	3.7049
750.083	2.45624
753.458	1.86859
756.833	1.81616
760.207	3.72754
763.582	3.55158
766.957	3.13684
770.332	6.16864
773.707	14.1478
777.082	6.9256
780.456	6.75201
783.831	7.57959
787.206	5.87897
790.581	6.87219
793.956	8.6554
797.33	8.96039
800.705	8.9964
804.08	8.61487
807.455	12.1897
810.83	10.6729
814.205	10.0806
817.579	11.4345
820.954	15.1855
824.329	13.3998
827.704	15.3848
831.079	16.059
834.453	16.4831
837.828	23.9175
841.203	16.3467
844.578	17.8091
847.953	20.0541
851.328	20.7894
854.702	17.8962
858.077	17.0049
861.452	18.2766
864.827	23.1582
868.202	17.856
871.577	17.7878
874.951	9.99805
878.326	10.04
881.701	13.2208
885.076	10.2975
888.451	7.39917
891.825	7.21051
895.2	5.76562
898.575	9.49963
901.95	5.1463
905.325	3.8537
908.699	0.064026
912.074	1.49622
915.449	0.692444
918.824	1.11835
922.199	1.40912
925.573	0.178467
928.948	3.41638
932.323	0.013306
935.698	1.56995
939.073	1.33752
942.448	1.74341
945.822	0.458374
949.197	1.90076
952.572	2.48908
955.947	3.2279
959.322	7.27918
962.697	8.81988
966.071	12.0453
969.446	13.6175
972.821	28.4367
976.196	46.0057
979.571	71.1508
982.945	104.196
986.32	145.652
989.695	181.059
993.07	190.895
996.445	170.682
999.819	144.483
1003.19	123.463
1006.57	119.934
1009.94	125.924
1013.32	152.354
1016.69	181.36
1020.07	210.591
1023.44	223.409
1026.82	206.073
1030.19	163.546
1033.57	113.945
1036.94	73.4218
1040.32	46.9531
1043.69	31.5311
1047.07	22.2304
1050.44	17.6337
1053.82	9.71777
1057.19	10.2123
1060.57	4.21338
1063.94	6.89404
1067.32	5.48914
1070.69	7.65259
1074.07	7.13733
1077.44	6.17651
1080.82	7.10962
1084.19	3.88001
1087.57	7.16077
1090.94	3.47424
1094.31	5.69287
1097.69	4.53552
1101.06	5.16992
1104.44	10.8005
1107.81	10.0085
1111.19	13.6809
1114.56	17.9232
1117.94	15.6954
1121.31	13.8511
1124.69	13.6029
1128.06	7.95032
1131.44	1.33276
1134.81	0.261841
1138.19	5.04224
1141.56	0.043945
1144.94	3.48633
1148.31	1.54565
1151.69	1.44568
1155.06	1.41833
1158.44	3.86328
1161.81	4.29565
1165.19	7.07898
1168.56	6.42871
1171.93	8.39905
1175.31	12.1309
1178.68	12.5083
1182.06	16.8694
1185.43	16.1793
1188.81	18.2237
1192.18	16.6426
1195.56	18.8655
1198.93	9.9563
1202.31	12.1228
1205.68	12.3908
1209.06	10.4543
1212.43	10.859
1215.81	11.0878
1219.18	11.0863
1222.56	15.9134
1225.93	12.1915
1229.31	16.0762
1232.68	18.0536
1236.06	20.3076
1239.43	18.0209
1242.81	18.5621
1246.18	19.3189
1249.56	15.5732
1252.93	13.7896
1256.31	8.77942
1259.68	7.83057
1263.06	1.43372
1266.43	5.04968
1269.81	3.00134
1273.18	3.53381
1276.56	1.07544
1279.93	3.80847
1283.3	3.18481
1286.68	6.14905
1290.05	4.51575
1293.43	3.32544
1296.8	0.755981
1300.18	0.078613
