Measurement: Raman, 532 nm, unoriented, Raman Data Processed
Mineral: Mosesite
Rruff sample: R180030
Ideal chemistry: (Hg^2+^_2_N^3-^)Cl
Locality: Terlingua, Brewster Co., Texas, USA
Source: Tom Loomis
Description: Aggregates of granular yellow crystals
Raman shift (cm-1)	intensity
88.1367	0
91.5115	0.615601
94.8863	12.7387
98.2612	73.463
101.636	75.7838
105.011	91.851
108.386	171.838
111.76	229.764
115.135	272.521
118.51	291.522
121.885	315.728
125.26	385.26
128.635	406.395
132.009	395.498
135.384	447.362
138.759	536.211
142.134	633.891
145.509	751.694
148.883	889.967
152.258	1006.23
155.633	1004.03
159.008	832.292
162.383	618.036
165.757	436.272
169.132	312.938
172.507	216.284
175.882	156.261
179.257	112.469
182.632	86.0263
186.006	64.789
189.381	45.6475
192.756	23.9695
196.131	4.46857
199.506	4.62933
202.881	14.6071
206.255	9.13001
209.63	3.66461
213.005	2.52026
216.38	3.77618
219.755	2.16162
223.129	4.62396
226.504	5.60416
229.879	8.06128
233.254	10.3265
236.629	13.7274
240.004	13.4937
243.378	21.5285
246.753	26.398
250.128	33.3494
253.503	40.9328
256.878	49.0923
260.252	54.6701
263.627	51.838
267.002	47.0114
270.377	47.0766
273.752	44.8545
277.127	47.3
280.501	52.3678
283.876	52.0636
287.251	67.0573
290.626	79.8003
294.001	86.9032
297.375	88.6405
300.75	76.8462
304.125	61.5297
307.5	46.7838
310.875	35.2017
314.25	32.562
317.624	28.328
320.999	27.9159
324.374	24.728
327.749	22.0826
331.124	25.9327
334.498	23.9667
337.873	30.8543
341.248	33.6973
344.623	29.7593
347.998	32.2118
351.373	31.3325
354.747	28.0239
358.122	24.0503
361.497	16.2999
364.872	14.1088
368.247	7.13173
371.621	4.99486
374.996	2.12704
378.371	0.587891
381.746	2.52165
385.121	0.524094
388.495	0.388626
391.87	1.57474
395.245	5.27457
398.62	1.45451
401.995	1.91016
405.37	3.36221
408.744	3.46474
412.119	9.68111
415.494	14.9237
418.869	18.0753
422.244	30.3417
425.618	49.2744
428.993	68.0621
432.368	84.4337
435.743	91.2661
439.118	93.0829
442.493	100.513
445.867	104.687
449.242	108.886
452.617	106.273
455.992	102.507
459.367	89.4374
462.741	84.2746
466.116	73.6787
469.491	65.6493
472.866	52.9304
476.241	44.5656
479.615	31.1621
482.99	25.0516
486.365	18.7675
489.74	7.75519
493.115	1.26904
496.49	6.22122
499.864	9.55228
503.239	15.5534
506.614	11.1714
509.989	5.89371
513.364	5.87137
516.739	23.8561
520.113	43.368
523.488	82.5834
526.863	115.356
530.238	156.105
533.613	210.602
536.987	273.782
540.362	367.283
543.737	492.042
547.112	695.198
550.487	989.696
553.861	1420.34
557.236	2011.29
560.611	2675.29
563.986	3213.77
567.361	3391.72
570.736	3126.31
574.11	2675.91
577.485	2184.24
580.86	1768.56
584.235	1429.64
587.61	1158.55
590.985	944.148
594.359	778.272
597.734	660.898
601.109	546.973
604.484	444.476
607.859	354.397
611.233	267.935
614.608	198.899
617.983	143.42
621.358	102.006
624.733	69.2002
628.107	45.0232
631.482	36.8944
634.857	32.6067
638.232	33.0241
641.607	21.3901
644.982	22.8003
648.356	18.7933
651.731	15.7587
655.106	11.9132
658.481	7.11227
661.856	6.72372
665.231	1.10205
668.605	2.92323
671.98	5.52594
675.355	6.74081
678.73	5.56033
682.105	9.20294
685.479	5.18117
688.854	3.56444
692.229	0.9207
695.604	4.80385
698.979	9.20447
702.354	16.5809
705.728	26.9962
709.103	39.7755
712.478	49.9367
715.853	52.5668
719.227	43.367
722.602	38.5183
725.977	35.4179
729.352	32.1455
732.727	32.4913
736.102	32.1219
739.476	27.0149
742.851	23.3962
746.226	19.5322
749.601	14.6968
752.976	17.5615
756.351	16.2784
759.725	16.6885
763.1	16.1458
766.475	13.0312
769.85	13.8594
773.225	13.912
776.599	14.5689
779.974	18.2709
783.349	18.3754
786.724	15.8122
790.099	19.6541
793.473	18.8926
796.848	17.4354
800.223	23.2431
803.598	25.9573
806.973	32.612
810.348	31.2355
813.722	24.2691
817.097	20.9335
820.472	13.4892
823.847	12.3973
827.222	6.9579
830.597	4.71423
833.971	7.09933
837.346	7.41422
840.721	7.03558
844.096	4.18195
847.471	4.07599
850.846	2.60449
854.22	6.05702
857.595	5.312
860.97	3.33975
864.345	0.092178
867.72	3.97414
871.094	3.15176
874.469	5.39615
877.844	1.9218
881.219	0.301193
884.594	1.53169
887.968	1.22244
891.343	0.400925
894.718	0.03302
898.093	0.561111
901.468	1.81136
904.842	0.170364
908.217	2.77887
911.592	0.881302
914.967	0.124908
918.342	0.377182
921.717	4.95129
925.091	10.6791
928.466	12.3128
931.841	23.3719
935.216	37.7417
938.591	63.7072
941.966	116.467
945.34	229.884
948.715	456.618
952.09	811.928
955.465	1149.03
958.84	1120.93
962.214	726.083
965.589	344.568
968.964	151.479
972.339	70.1692
975.714	35.7076
979.088	17.0104
982.463	8.67268
985.838	2.03482
989.213	1.74019
992.588	0.189865
995.963	1.85783
999.337	0.390533
1002.71	1.49853
1006.09	1.01714
1009.46	3.95541
1012.84	4.21269
1016.21	14.0321
1019.59	15.6757
1022.96	16.5538
1026.34	18.8553
1029.71	23.4892
1033.09	30.3926
1036.46	31.0441
1039.84	36.7195
1043.21	38.7516
1046.59	42.295
1049.96	46.8475
1053.33	49.4924
1056.71	51.9016
1060.08	54.2992
1063.46	51.4199
1066.83	47.388
1070.21	41.7569
1073.58	39.3171
1076.96	31.6464
1080.33	26.9289
1083.71	27.677
1087.08	26.4685
1090.46	25.701
1093.83	22.788
1097.21	26.9033
1100.58	27.4588
1103.96	27.8581
1107.33	26.089
1110.71	25.1142
1114.08	21.0121
1117.46	22.2691
1120.83	17.466
1124.21	11.3645
1127.58	11.8808
1130.95	2.17149
1134.33	3.08005
1137.7	0.701187
1141.08	1.82263
1144.45	0.042465
1147.83	0.402451
1151.2	0.022537
1154.58	0.568909
1157.95	2.18039
1161.33	2.60384
1164.7	0.883743
1168.08	4.31192
1171.45	1.60564
1174.83	2.87727
1178.2	2.69563
1181.58	4.38739
1184.95	5.90808
1188.33	7.24835
1191.7	6.55577
1195.08	4.77862
1198.45	6.91007
1201.83	7.32652
1205.2	8.44868
1208.58	5.95167
1211.95	8.62337
1215.33	6.73036
1218.7	4.62845
1222.08	3.94678
1225.45	3.58417
1228.83	1.46912
1232.2	4.23782
1235.58	0.592972
1238.95	0.690781
1242.32	1.2117
1245.7	0.773163
1249.07	3.61644
1252.45	4.79677
1255.82	0.148468
1259.2	4.38957
1262.57	1.84329
1265.95	1.38881
1269.32	4.33241
1272.7	1.27986
1276.07	3.75668
1279.45	1.12488
1282.82	4.23076
1286.2	4.88373
1289.57	2.32341
1292.95	5.12096
1296.32	3.42451
1299.7	0.441559
