Measurement: Raman, 780 nm, unoriented, Raman Data Processed
Mineral: Mosesite
Rruff sample: R180030
Ideal chemistry: (Hg^2+^_2_N^3-^)Cl
Locality: Terlingua, Brewster Co., Texas, USA
Source: Tom Loomis
Description: Aggregates of granular yellow crystals
Raman shift (cm-1)	intensity
98.6707	0
102.046	1.8053
105.42	51.1942
108.795	76.354
112.17	69.6968
115.545	77.2803
118.92	61.1842
122.294	107.75
125.669	180.995
129.044	21.5198
132.419	11.4661
135.794	29.9644
139.168	106.327
142.543	198.31
145.918	295.697
149.293	396.062
152.668	433.637
156.043	368.676
159.417	260.601
162.792	158.769
166.167	95.8018
169.542	51.2808
172.917	27.577
176.292	9.93335
179.666	2.7486
183.041	5.04657
186.416	3.92731
189.791	0.966675
193.166	11.4837
196.54	2.02856
199.915	4.11529
203.29	15.6317
206.665	29.8973
210.04	46.9528
213.415	61.343
216.789	67.8994
220.164	73.0683
223.539	79.7991
226.914	81.6812
230.289	86.7958
233.663	86.4171
237.038	86.0268
240.413	77.0161
243.788	78.2099
247.163	79.2616
250.537	77.4769
253.912	76.2125
257.287	81.0642
260.662	77.7595
264.037	76.0776
267.412	73.2125
270.786	65.2549
274.161	61.9864
277.536	58.4366
280.911	66.8117
284.286	66.0063
287.661	72.3162
291.035	80.149
294.41	85.4469
297.785	75.8917
301.16	60.5823
304.535	40.1483
307.909	32.3019
311.284	26.501
314.659	21.5656
318.034	20.5692
321.409	15.4526
324.784	13.7971
328.158	15.7396
331.533	17.8481
334.908	17.8167
338.283	15.2506
341.658	20.9979
345.032	20.9268
348.407	25.9933
351.782	23.1332
355.157	20.9098
358.532	12.5833
361.906	8.91577
365.281	5.20294
368.656	1.1525
372.031	1.80136
375.406	1.97333
378.781	3.06616
382.155	1.71921
385.53	0.922638
388.905	1.52798
392.28	0.661591
395.655	1.46579
399.029	2.64755
402.404	1.27527
405.779	3.3605
409.154	12.5891
412.529	18.5158
415.904	18.2163
419.278	37.6254
422.653	61.6304
426.028	88.0568
429.403	122.989
432.778	133.371
436.152	125.243
439.527	122.562
442.902	120.46
446.277	124.147
449.652	119.24
453.027	109.868
456.401	102.725
459.776	87.8066
463.151	75.5509
466.526	71.4195
469.901	58.0528
473.276	41.5566
476.65	35.9886
480.025	25.3855
483.4	20.1211
486.775	10.3517
490.15	6.93268
493.524	2.56964
496.899	7.62625
500.274	6.48074
503.649	11.2528
507.024	8.75427
510.399	6.96457
513.773	9.87265
517.148	24.3308
520.523	42.5383
523.898	65.8663
527.273	89.6892
530.647	125.059
534.022	162.609
537.397	214.194
540.772	287.639
544.147	390.265
547.521	537.844
550.896	789.701
554.271	1151.9
557.646	1635.01
561.021	2138.41
564.396	2467.04
567.77	2468.53
571.145	2192.68
574.52	1833.6
577.895	1494.09
581.27	1203.47
584.644	977.739
588.019	795.638
591.394	661.916
594.769	562.311
598.144	485.065
601.519	405.015
604.893	331.791
608.268	261.136
611.643	193.197
615.018	145.094
618.393	100.82
621.768	63.2216
625.142	50.7942
628.517	39.5906
631.892	33.8477
635.267	26.5613
638.642	21.2082
642.016	17.9786
645.391	13.3474
648.766	14.3629
652.141	8.90277
655.516	11.0459
658.89	6.68063
662.265	1.61468
665.64	2.72839
669.015	0.621429
672.39	4.04752
675.765	3.69299
679.139	5.80585
682.514	1.33432
685.889	3.90692
689.264	2.52862
692.639	2.44266
696.014	4.46527
699.388	8.87909
702.763	16.9177
706.138	25.3456
709.513	36.9339
712.888	39.5136
716.262	41.3501
719.637	38.3077
723.012	30.6893
726.387	23.0583
729.762	27.5771
733.136	21.1079
736.511	18.8575
739.886	17.2271
743.261	16.8971
746.636	10.4235
750.011	12.1471
753.385	9.56448
756.76	7.04965
760.135	9.15976
763.51	4.8356
766.885	9.13232
770.26	7.11511
773.634	10.8135
777.009	7.24445
780.384	8.77179
783.759	11.1035
787.134	11.2348
790.508	10.1377
793.883	16.2768
797.258	15.3776
800.633	19.503
804.008	24.6247
807.383	26.5315
810.757	22.2946
814.132	18.1282
817.507	11.4317
820.882	6.75171
824.257	6.56851
827.631	2.08594
831.006	4.26572
834.381	3.99503
837.756	2.89963
841.131	3.64584
844.505	1.06686
847.88	1.96759
851.255	4.88998
854.63	1.6868
858.005	2.9209
861.38	2.62711
864.754	4.48846
868.129	5.65575
871.504	2.30298
874.879	2.21162
878.254	1.68217
881.629	3.96915
885.003	3.01358
888.378	0.249557
891.753	0.029785
895.128	1.34878
898.503	1.16979
901.877	1.07307
905.252	2.30745
908.627	3.19177
912.002	1.9623
915.377	1.93315
918.751	5.75298
922.126	5.13316
925.501	9.09067
928.876	15.0394
932.251	24.8262
935.625	46.2206
939	80.1155
942.375	151.017
945.75	305.608
949.125	610.88
952.5	1041.56
955.875	1260.54
959.249	995.226
962.624	531.592
965.999	236.775
969.374	101.081
972.749	48.8703
976.123	23.9314
979.498	11.4703
982.873	9.49673
986.248	1.26006
989.623	2.91885
992.997	1.7606
996.372	2.11656
999.747	2.14154
1003.12	2.44495
1006.5	2.92075
1009.87	6.06291
1013.25	10.4126
1016.62	12.3678
1020	15.4783
1023.37	19.8096
1026.75	23.1445
1030.12	20.9643
1033.49	27.1467
1036.87	32.4922
1040.24	35.5577
1043.62	40.4151
1046.99	43.8578
1050.37	54.0227
1053.74	45.9427
1057.12	48.9256
1060.49	45.7884
1063.87	43.0763
1067.24	41.5179
1070.62	34.9607
1073.99	29.1921
1077.37	32.1714
1080.74	27.7731
1084.12	27.5833
1087.49	23.4979
1090.87	24.9156
1094.24	22.5496
1097.62	26.7722
1100.99	32.5246
1104.37	24.558
1107.74	25.2989
1111.12	21.6235
1114.49	20.7665
1117.87	18.3662
1121.24	12.2324
1124.62	12.2338
1127.99	7.64114
1131.37	3.14275
1134.74	0.169815
1138.12	1.99458
1141.49	1.82794
1144.86	0.749207
1148.24	4.34714
1151.61	0.932724
1154.99	1.68556
1158.36	1.16335
1161.74	2.00484
1165.11	1.40604
1168.49	1.17934
1171.86	4.78734
1175.24	0.121826
1178.61	4.66481
1181.99	4.40944
1185.36	3.71492
1188.74	6.51466
1192.11	7.23465
1195.49	6.49425
1198.86	6.31291
1202.24	7.08029
1205.61	5.73669
1208.99	7.47649
1212.36	3.30588
1215.73	2.42429
1219.11	1.86351
1222.48	4.7856
1225.86	3.86311
1229.23	2.97032
1232.61	4.42111
1235.98	3.75188
1239.36	4.7412
1242.73	3.72266
1246.11	1.35388
1249.48	2.15562
1252.86	2.11937
1256.23	5.14642
1259.61	0.928329
1262.98	5.32881
1266.36	1.19919
1269.73	1.79327
1273.11	2.72479
1276.48	1.75844
1279.86	0.068283
