Measurement: Raman, 780 nm, unoriented, Raman Data Processed
Mineral: Mozartite
Rruff sample: R180002
Ideal chemistry: CaMn^3+^SiO_4_(OH)
Locality: N'Chwaning III mine, Kalahari manganese field, Northern Cape Province, South Africa
Source: Ludi von Bezing
Description: Red granular or pseudo-rhombohedral crystals, associated with colorless elongated celestine, calcite, and quartz (two pieces)
Raman shift (cm-1)	intensity
111.688	0
115.063	3.67236
118.438	0.121979
121.812	4.41348
125.187	1.37851
128.562	6.01978
131.937	7.36916
135.312	11.1165
138.686	16.0469
142.061	11.9888
145.436	11.8938
148.811	15.7427
152.186	28.2195
155.56	40.617
158.935	49.8918
162.31	55.9475
165.685	56.2302
169.06	48.8494
172.435	38.2867
175.809	26.5617
179.184	17.1957
182.559	7.99248
185.934	3.64099
189.309	1.00885
192.684	0.422523
196.058	0.81369
199.433	0.582153
202.808	3.59271
206.183	4.55186
209.558	5.27256
212.932	4.83627
216.307	6.47475
219.682	5.6103
223.057	6.7494
226.432	7.78482
229.806	11.3775
233.181	14.5246
236.556	18.5083
239.931	21.4078
243.306	25.967
246.681	29.0664
250.055	31.3221
253.43	31.8178
256.805	31.998
260.18	32.2962
263.555	29.8014
266.93	27.4455
270.304	24.1241
273.679	21.108
277.054	19.3629
280.429	17.3318
283.804	13.8734
287.178	11.1343
290.553	6.51107
293.928	3.7012
297.303	2.83117
300.678	1.06189
304.053	0.41272
307.427	0.088036
310.802	0.031303
314.177	0.401146
317.552	0.116058
320.927	0.78653
324.301	2.11045
327.676	2.75165
331.051	4.09291
334.426	7.00265
337.801	9.95561
341.175	11.9157
344.55	15.4949
347.925	19.6243
351.3	23.2351
354.675	25.0833
358.05	24.2889
361.424	20.6247
364.799	16.7152
368.174	12.1795
371.549	9.10799
374.924	6.23161
378.298	3.69085
381.673	2.48623
385.048	1.72192
388.423	1.57545
391.798	1.59838
395.173	0.393864
398.547	0.697998
401.922	0.132576
405.297	0.861382
408.672	1.20725
412.047	1.11731
415.421	1.13486
418.796	1.55961
422.171	1.04758
425.546	0.581497
428.921	0.519585
432.296	0.361519
435.67	0.01368
439.045	0.146362
442.42	0.077679
445.795	0.93
449.17	0.615318
452.545	1.36394
455.919	1.59665
459.294	2.36438
462.669	2.02857
466.044	1.88387
469.419	1.76859
472.793	0.400726
476.168	0.297737
479.543	0.898956
482.918	0.049618
486.293	0.507545
489.668	0.14061
493.042	0.234402
496.417	0.18206
499.792	0.026325
503.167	0.80732
506.542	0.041561
509.916	0.124573
513.291	0.464615
516.666	1.26335
520.041	2.56947
523.416	3.00928
526.79	5.90459
530.165	8.29583
533.54	12.706
536.915	16.8877
540.29	22.2757
543.665	28.5251
547.039	35.3023
550.414	41.1491
553.789	43.758
557.164	42.0647
560.539	37.695
563.913	32.87
567.288	26.7934
570.663	22.2524
574.038	17.409
577.413	14.7459
580.788	12.7569
584.162	11.5231
587.537	10.9143
590.912	10.2895
594.287	9.82013
597.662	8.71603
601.037	8.12685
604.411	7.30169
607.786	5.72929
611.161	4.50899
614.536	4.07223
617.911	3.10305
621.285	2.84827
624.66	2.33827
628.035	2.12543
631.41	1.82144
634.785	1.37487
638.159	1.62898
641.534	0.634922
644.909	0.407845
648.284	0.404095
651.659	0.714233
655.034	0.190147
658.408	0.058758
661.783	0.219059
665.158	0.003483
668.533	0.193962
671.908	0.126163
675.283	0.327511
678.657	0.089321
682.032	0.080612
685.407	0.210968
688.782	0.024372
692.157	0.093006
695.531	0.018627
698.906	0.111893
702.281	0.657982
705.656	0.092834
709.031	0.75024
712.405	0.211845
715.78	0.21278
719.155	0.061497
722.53	0.198315
725.905	0.32436
729.279	0.126366
732.654	0.152752
736.029	0.355648
739.404	0.776119
742.779	0.185261
746.154	0.457245
749.528	0.396503
752.903	0.290943
756.278	0.231384
759.653	0.749187
763.028	0.825775
766.403	0.990448
769.777	1.55064
773.152	1.75959
776.527	2.69356
779.902	2.22135
783.277	3.45443
786.652	4.33293
790.026	4.72611
793.401	5.89177
796.776	6.10339
800.151	6.84983
803.526	6.12717
806.9	5.8549
810.275	5.19883
813.65	5.25076
817.025	5.28846
820.4	4.26088
823.774	5.51419
827.149	5.19687
830.524	5.22535
833.899	5.33735
837.274	6.63955
840.649	6.19914
844.023	6.94155
847.398	7.90001
850.773	6.74783
854.148	6.87418
857.523	6.50648
860.898	6.25769
864.272	5.37781
867.647	5.00833
871.022	5.16028
874.397	4.94898
877.771	4.79591
881.146	4.45184
884.521	3.97259
887.896	4.15323
891.271	4.06012
894.646	2.92095
898.02	2.15566
901.395	0.754345
904.77	0.393353
908.145	0.37698
911.52	0.045856
914.894	0.064003
918.269	0.0527
921.644	0.25568
925.019	0.143246
928.394	0.019325
931.769	0.069336
935.143	0.237381
938.518	0.383461
941.893	0.656357
945.268	0.768158
948.643	0.637928
952.018	0.608147
955.392	1.03847
958.767	1.83494
962.142	1.59719
965.517	1.98671
968.892	2.22861
972.266	2.41269
975.641	2.06015
979.016	1.82972
982.391	1.65081
985.766	1.68461
989.141	1.25022
992.515	0.56772
995.89	0.546761
999.265	0.424747
1002.64	0.399855
1006.01	0.025412
1009.39	0.153578
1012.76	0.137594
1016.14	0.277708
1019.51	0.69276
1022.89	0.037134
1026.26	0.228685
1029.64	0.646376
1033.01	1.20165
1036.39	0.840063
1039.76	0.990597
1043.14	0.787489
1046.51	1.03731
1049.89	0.914785
1053.26	1.48157
1056.64	1.14211
1060.01	1.47805
1063.39	0.952608
1066.76	1.00544
1070.14	0.785496
1073.51	0.840763
1076.89	0.971691
1080.26	1.24406
1083.63	0.524317
1087.01	0.465166
1090.38	0.451147
1093.76	0.292065
1097.13	0.406067
1100.51	0.633768
1103.88	0.144053
1107.26	0.535746
1110.63	0.150896
1114.01	0.358683
1117.38	0.613865
1120.76	0.000792
1124.13	0.281759
1127.51	0.133224
1130.88	0.286369
1134.26	0.364607
1137.63	0.944567
1141.01	0.163527
1144.38	0.024284
1147.76	0.681156
1151.13	0.249666
1154.51	0.771433
1157.88	0.154184
1161.26	0.446735
1164.63	0.523043
1168.01	0.276182
1171.38	0.213587
1174.76	0.483963
1178.13	0.473211
1181.51	0.376156
1184.88	0.814529
1188.26	0.411266
1191.63	0.400517
1195	0.708628
1198.38	0.705587
1201.75	0.007891
1205.13	0.860332
1208.5	0.024099
1211.88	0.742641
1215.25	0.603781
1218.63	0.743553
1222	0.102079
1225.38	0.018339
1228.75	0.779409
1232.13	0.081442
1235.5	0.482265
1238.88	0.770206
1242.25	0.272264
1245.63	0.153513
1249	0.154963
1252.38	0.046707
1255.75	0.134468
1259.13	0.297203
1262.5	0.28874
1265.88	0.56798
1269.25	0.147373
1272.62	0.520788
1276	0.234673
1279.38	0.331486
