Measurement: Raman, 532 nm, unoriented, Raman Data Processed
Mineral: Mozartite
Rruff sample: R180002
Ideal chemistry: CaMn^3+^SiO_4_(OH)
Locality: N'Chwaning III mine, Kalahari manganese field, Northern Cape Province, South Africa
Source: Ludi von Bezing
Description: Red granular or pseudo-rhombohedral crystals, associated with colorless elongated celestine, calcite, and quartz (two pieces)
Raman shift (cm-1)	intensity
102.6	0
105.975	0.558701
109.35	9.33093
112.725	3.48883
116.1	15.7654
119.474	24.1021
122.849	27.9736
126.224	39.5196
129.599	51.7641
132.974	64.2829
136.348	74.7238
139.723	92.3619
143.098	91.1314
146.473	88.6448
149.848	87.7128
153.222	96.0361
156.597	109.819
159.972	123.439
163.347	137.086
166.722	141.685
170.097	137.372
173.471	127.922
176.846	103.87
180.221	82.7254
183.596	65.3121
186.971	54.2526
190.345	45.2682
193.72	41.0789
197.095	35.8674
200.47	35.4982
203.845	40.2761
207.22	38.8216
210.594	29.7114
213.969	18.4077
217.344	10.2234
220.719	4.46954
224.094	2.5233
227.469	0.508621
230.843	2.69884
234.218	0.190125
237.593	2.11764
240.968	2.26076
244.343	0.266281
247.717	1.34911
251.092	2.79149
254.467	4.00343
257.842	6.82077
261.217	8.868
264.591	10.8128
267.966	13.7322
271.341	18.1303
274.716	24.1208
278.091	30.4738
281.466	32.3344
284.84	33.4513
288.215	27.5193
291.59	21.2819
294.965	13.524
298.34	7.74881
301.714	3.88657
305.089	1.26378
308.464	0.252197
311.839	0.745209
315.214	0.381714
318.589	2.41223
321.963	3.5889
325.338	7.32509
328.713	10.7887
332.088	14.6221
335.463	20.1183
338.837	25.9501
342.212	33.5226
345.587	42.2286
348.962	53.0005
352.337	62.4026
355.712	69.4286
359.086	70.4574
362.461	63.978
365.836	51.8685
369.211	39.1468
372.586	26.9552
375.96	19.081
379.335	12.5535
382.71	9.34306
386.085	7.92017
389.46	5.57065
392.834	5.80483
396.209	5.14302
399.584	4.53359
402.959	4.18736
406.334	3.13893
409.709	2.07133
413.083	2.33239
416.458	2.73686
419.833	2.48412
423.208	2.75165
426.583	4.75831
429.957	0.509399
433.332	0.894058
436.707	0.503105
440.082	0.077972
443.457	0.245277
446.832	0.51741
450.206	0.009369
453.581	0.443504
456.956	0.001877
460.331	1.13369
463.706	1.94413
467.08	0.333733
470.455	0.180473
473.83	0.998947
477.205	0.162697
480.58	0.965965
483.955	0.896828
487.329	0.419365
490.704	0.803848
494.079	1.20325
497.454	1.13327
500.829	0.349106
504.204	0.580002
507.578	0.520905
510.953	0.687454
514.328	0.781845
517.703	2.20845
521.078	6.21846
524.452	12.0513
527.827	17.79
531.202	27.605
534.577	41.0106
537.952	58.2647
541.327	77.8544
544.701	99.8659
548.076	127.363
551.451	151.172
554.826	167.871
558.201	175.012
561.575	166.65
564.95	148.967
568.325	125.799
571.7	103.588
575.075	86.188
578.449	71.6919
581.824	62.564
585.199	57.5759
588.574	53.763
591.949	50.7527
595.323	50.0156
598.698	46.5372
602.073	43.7563
605.448	39.6382
608.823	33.4635
612.198	29.4559
615.572	24.5668
618.947	20.9274
622.322	15.5988
625.697	13.273
629.072	10.0043
632.447	6.6503
635.821	4.59352
639.196	5.07288
642.571	3.05506
645.946	1.75298
649.321	2.17673
652.695	3.46754
656.07	1.96523
659.445	1.22918
662.82	0.567078
666.195	0.21167
669.569	1.36522
672.944	0.950211
676.319	2.25731
679.694	1.55984
683.069	0.15876
686.444	1.32044
689.818	0.879784
693.193	0.792397
696.568	0.351852
699.943	0.456299
703.318	0.426857
706.692	1.26275
710.067	1.3249
713.442	2.68265
716.817	1.97342
720.192	2.24246
723.567	2.42755
726.941	2.16531
730.316	2.43397
733.691	3.1063
737.066	3.20032
740.441	1.8781
743.816	2.12367
747.19	1.8212
750.565	1.83906
753.94	3.18809
757.315	2.96333
760.69	3.97977
764.064	4.70647
767.439	5.48851
770.814	7.24397
774.189	8.41153
777.564	10.6936
780.938	11.9199
784.313	14.6121
787.688	15.51
791.063	18.6767
794.438	19.5588
797.813	20.3036
801.187	19.7879
804.562	16.3562
807.937	12.3052
811.312	9.8649
814.687	5.80725
818.062	3.85081
821.436	1.32071
824.811	1.1073
828.186	0.908356
831.561	2.00536
834.936	4.89377
838.31	5.51944
841.685	9.31119
845.06	11.56
848.435	13.3624
851.81	14.4134
855.184	16.0359
858.559	14.5967
861.934	12.6175
865.309	10.1353
868.684	8.27986
872.059	5.85811
875.433	6.1554
878.808	5.83989
882.183	6.06853
885.558	6.36783
888.933	7.59631
892.308	5.32252
895.682	4.12831
899.057	2.44269
902.432	1.65976
905.807	0.556686
909.182	0.200516
912.556	0.923843
915.931	0.078583
919.306	0.034561
922.681	2.61707
926.056	2.88828
929.431	3.02246
932.805	4.41801
936.18	5.89383
939.555	6.36807
942.93	5.79554
946.305	5.97385
949.679	6.24675
953.054	6.71002
956.429	8.11987
959.804	9.86186
963.179	11.8659
966.553	14.6201
969.928	17.2118
973.303	15.6767
976.678	11.4961
980.053	10.0176
983.428	9.20902
986.802	6.52459
990.177	6.68192
993.552	4.53017
996.927	2.71828
1000.3	1.60471
1003.68	1.18617
1007.05	0.718262
1010.43	0.184807
1013.8	1.19375
1017.18	0.757347
1020.55	0.368004
1023.92	1.13066
1027.3	0.658875
1030.67	0.883141
1034.05	0.225578
1037.42	1.2417
1040.8	0.405128
1044.17	1.95686
1047.55	1.19959
1050.92	1.14992
1054.3	1.74626
1057.67	1.35815
1061.05	0.993698
1064.42	1.55067
1067.8	0.598152
1071.17	1.71324
1074.55	1.24631
1077.92	1.04334
1081.3	0.954643
1084.67	0.931427
1088.05	1.66388
1091.42	1.8297
1094.8	0.290337
1098.17	0.753784
1101.55	0.559471
1104.92	0.808601
1108.3	0.829376
1111.67	0.148766
1115.05	0.626564
1118.42	0.801788
1121.8	1.35718
1125.17	0.732597
1128.55	0.038162
1131.92	0.173721
1135.29	0.779198
1138.67	0.645988
1142.04	0.282967
1145.42	1.31197
1148.79	1.41627
1152.17	0.823769
1155.54	0.37664
1158.92	0.23172
1162.29	0.953506
1165.67	1.0096
1169.04	0.545067
1172.42	1.79504
1175.79	1.23383
1179.17	1.39637
1182.54	0.934113
1185.92	2.09152
1189.29	3.15048
1192.67	2.41162
1196.04	2.62734
1199.42	3.82463
1202.79	3.20142
1206.17	3.56635
1209.54	2.42064
1212.91	3.62047
1216.29	3.95837
1219.66	4.13163
1223.04	3.2854
1226.41	3.94922
1229.79	3.45625
1233.16	3.74489
1236.54	2.56535
1239.91	2.75218
1243.29	2.74702
1246.66	3.36486
1250.04	2.5968
1253.41	1.85892
1256.79	1.37064
1260.16	2.10376
1263.54	1.35963
1266.91	0.84977
1270.29	0.974487
1273.66	1.2202
1277.04	1.13113
1280.41	1.44409
1283.79	1.38152
1287.16	0.953369
1290.54	1.16205
1293.91	1.06515
1297.29	0.980247
1300.66	0
