Measurement: Raman, 785 nm, unoriented, Raman Data Processed
Mineral: Nontronite
Rruff sample: X050121
Ideal chemistry: Na_0.3_Fe^3+^_2_(Si,Al)_4_O_10_(OH)_2_nH_2_O
Locality: Mineto, near Spokane, Washington, USA
Source: CIT H-33b
Raman shift (cm-1)	intensity
212	0
216	4.291
220	2.202
224	2.391
228	15.105
232	97.438
236	292.22
240	548.324
244	516.717
248	280.28
252	105.916
256	17.134
260	7.603
264	1.3
268	64.376
272	142.679
276	129.019
280	145.48
284	288.893
288	352.007
292	228.779
296	115.589
300	50.396
304	14.979
308	7.118
312	5.424
316	19.618
320	37.55
324	44.588
328	27.468
332	18.952
336	7.383
340	0.656
344	2.396
348	6.617
352	17.453
356	45.005
360	73.152
364	84.14
368	58.25
372	30.383
376	23.065
380	12.091
384	5.273
388	0.3
392	1.831
396	1.165
400	2.031
404	0.945
408	3.583
412	19.82
416	33.481
420	61.451
424	75.48
428	74.337
432	47.702
436	28.516
440	12.026
444	11.241
448	1.368
452	0.959
456	2.678
460	12.949
464	10.62
468	3.842
472	1.499
476	1.31
480	7.059
484	6.715
488	3.958
492	0.622
496	2.968
500	9.018
504	24.827
508	34.812
512	39.368
516	32.896
520	23.213
524	7.144
528	7.283
532	5.609
536	14.296
540	10.21
544	7.417
548	1.248
552	7.253
556	6.301
560	10.37
564	5.041
568	2.076
572	5.406
576	5.961
580	6.379
584	7.299
588	4.531
592	4.757
596	6.736
600	4.83
604	2.645
608	2.356
612	0.786
616	0.186
620	1.383
624	3.059
628	5.015
632	3.496
636	0.368
640	3.159
644	1.512
648	6.375
652	8.042
656	0.609
660	2.698
664	3.953
668	3.435
672	7.609
676	20.807
680	42.269
684	52.189
688	48.807
692	31.174
696	16.354
700	4.582
704	0.566
708	2.027
712	1.624
716	1.842
720	2.835
724	7
728	6.225
732	0.326
736	4.086
740	2.72
744	6.695
748	3.238
752	3.09
756	4.767
760	3.502
764	4.578
768	2.631
772	8.402
776	2.677
780	9.706
784	3.537
788	0.588
792	0.118
796	2.291
800	2.614
804	0.7
808	13.127
812	19.195
816	22.381
820	17.204
824	14.282
828	6.555
832	7.884
836	3.302
840	3.378
844	0.678
848	3.711
852	0.493
856	2.108
860	3.801
864	0.909
868	1.193
872	1.969
876	17.322
880	32.711
884	42.272
888	45.897
892	38.087
896	22.349
900	9.896
904	3.644
908	0.515
912	0.807
916	0.018
920	2.162
924	4.721
928	1.16
932	0.886
936	3.426
940	5.467
944	3.52
948	1.513
952	4.583
956	7.302
960	3.619
964	3.954
968	0.479
972	4.059
976	1.984
980	3.407
984	4.541
988	2.965
992	0.333
996	0.479
1000	4.833
1004	0.783
1008	0.693
1012	0.099
1016	0.181
1020	2.009
1024	0.384
1028	6.43
1032	12.492
1036	15.698
1040	13.762
1044	7.686
1048	6.319
1052	4.296
1056	0.336
1060	0.09
1064	1.608
1068	7.127
1072	6.651
1076	4.258
1080	5.204
1084	0.35
1088	0.819
1092	1.24
1096	1.632
1100	2.576
1104	1.079
1108	4.313
1112	5.647
1116	5.519
1120	0.454
1124	4.331
1128	2.718
1132	6.311
1136	2.323
1140	2.223
1144	3.138
1148	0.468
1152	0.23
1156	2.439
1160	2.427
1164	2.046
1168	2.101
1172	0.843
1176	1.788
1180	2.135
1184	4.048
1188	1.205
1192	4.334
1196	1.699
1200	7.318
1204	3.509
1208	1.752
1212	0.002
1216	0.892
1220	1.219
1224	4.262
1228	6.743
1232	0.643
1236	0.308
1240	2.957
1244	4.305
1248	2.025
1252	3.641
1256	6.13
1260	3.91
1264	4.677
1268	1.87
1272	0.743
1276	1.015
1280	2.986
1284	2.09
1288	2.53
1292	7.755
1296	3.729
1300	3.697
1304	2.083
1308	3.533
1312	4.174
1316	3.12
1320	5.938
1324	2.039
1328	0.488
1332	1.445
1336	3.402
1340	3.5
1344	2.207
1348	1.75
1352	1.951
1356	2.487
1360	1.916
1364	2.796
1368	5.419
1372	4.064
1376	2.808
1380	0.769
1384	2.395
1388	0.177
1392	0.794
1396	2.173
1400	4.059
1404	1.774
1408	3.654
1412	5.38
1416	4.541
1420	3.423
1424	1.621
1428	3.018
1432	3.401
1436	5.729
1440	2.383
1444	0.799
1448	2.48
1452	3.338
1456	0.342
1460	3.286
1464	1.755
1468	4.348
1472	0.852
1476	0.511
1480	0.808
1484	3.645
1488	3.46
1492	1.969
1496	4.837
1500	0
