Measurement: Raman, 780 nm, unoriented, Raman Data Processed
Mineral: Olsacherite
Rruff sample: R140741
Ideal chemistry: Pb^2+^_2_(Se^6+^O_4_)(S^6+^O_4_)
Locality: Virgen De Surumi mine, Pakajake Canyon, Chayanta Province, Potos√≠ Department, Bolivia
Source: Rock Currier
Description: Sprays of colorless prismatic crystals. This sample was originally labeled as mandarinoite.
Raman shift (cm-1)	intensity
94.8138	0
98.1886	3.73731
101.563	4.76453
104.938	18.4534
108.313	17.1315
111.688	22.4681
115.063	2.95996
118.438	4.18115
121.812	18.1406
125.187	35.8705
128.562	44.3689
131.937	56.6568
135.312	56.0598
138.686	51.3376
142.061	34.6351
145.436	25.2847
148.811	9.02875
152.186	0.661377
155.56	0.599426
158.935	5.4657
162.31	5.5639
165.685	0.858826
169.06	7.0824
172.435	4.56012
175.809	9.99023
179.184	18.2465
182.559	17.1246
185.934	28.8694
189.309	31.1815
192.684	34.9185
196.058	35.2557
199.433	51.5801
202.808	63.062
206.183	61.1875
209.558	61.3886
212.932	65.3767
216.307	63.2741
219.682	60.5066
223.057	58.335
226.432	52.1843
229.806	55.7574
233.181	54.195
236.556	49.1356
239.931	45.7221
243.306	40.3235
246.681	29.6161
250.055	22.5387
253.43	16.4345
256.805	12.3942
260.18	17.1905
263.555	13.8082
266.93	10.201
270.304	4.62363
273.679	1.70435
277.054	1.8122
280.429	4.69333
283.804	1.20398
287.178	4.11926
290.553	1.20084
293.928	4.72226
297.303	1.1665
300.678	1.8201
304.053	0.666382
307.427	1.20962
310.802	0.302979
314.177	1.86829
317.552	1.23837
320.927	2.94122
324.301	0.007202
327.676	0.245361
331.051	0.06424
334.426	1.03897
337.801	2.44275
341.175	10.9506
344.55	20.9915
347.925	41.3786
351.3	61.1351
354.675	88.7478
358.05	115.283
361.424	148.794
364.799	163.104
368.174	177.931
371.549	180.405
374.924	174.014
378.298	170.136
381.673	157.831
385.048	147.481
388.423	129.761
391.798	105.781
395.173	81.1563
398.547	74.6511
401.922	55.8535
405.297	39.425
408.672	26.9612
412.047	17.0547
415.421	10.5477
418.796	7.83081
422.171	17.9142
425.546	39.7312
428.921	76.4361
432.296	117.651
435.67	142.877
439.045	142.761
442.42	130.852
445.795	123.778
449.17	127.484
452.545	115.232
455.919	98.3823
459.294	79.4857
462.669	62.3719
466.044	47.7731
469.419	39.0382
472.793	40.0743
476.168	27.4094
479.543	22.0416
482.918	16.1929
486.293	14.013
489.668	8.74542
493.042	3.09827
496.417	0.965027
499.792	2.05362
503.167	4.14081
506.542	4.90799
509.916	1.67938
513.291	2.7038
516.666	1.50253
520.041	2.83066
523.416	2.57224
526.79	2.29425
530.165	4.0003
533.54	4.61627
536.915	11.5022
540.29	16.7656
543.665	18.7211
547.039	18.9973
550.414	16.7826
553.789	18.837
557.164	21.118
560.539	17.3772
563.913	18.902
567.288	16.4161
570.663	15.0821
574.038	12.1811
577.413	13.8116
580.788	16.4296
584.162	14.6557
587.537	15.8216
590.912	16.6039
594.287	39.2843
597.662	49.6339
601.037	56.8001
604.411	57.8355
607.786	45.477
611.161	36.6336
614.536	28.5327
617.911	32.6612
621.285	32.9943
624.66	33.5924
628.035	29.42
631.41	21.8218
634.785	20.3896
638.159	11.5513
641.534	3.47241
644.909	0.954254
648.284	1.87183
651.659	4.38419
655.034	2.88303
658.408	1.08557
661.783	5.94934
665.158	1.19907
668.533	1.06851
671.908	1.27689
675.283	2.89902
678.657	6.66479
682.032	5.45007
685.407	2.53891
688.782	6.34192
692.157	11.8834
695.531	10.972
698.906	9.36032
702.281	13.4565
705.656	14.9152
709.031	11.8297
712.405	16.7237
715.78	13.9937
719.155	12.1688
722.53	14.1954
725.905	9.87012
729.279	13.3115
732.654	13.2774
736.029	11.6303
739.404	9.78986
742.779	9.90659
746.154	10.3639
749.528	8.12012
752.903	4.88736
756.278	0.872864
759.653	5.64908
763.028	5.94998
766.403	6.86209
769.777	18.2651
773.152	31.6652
776.527	51.1377
779.902	82.8194
783.277	138.17
786.652	220.246
790.026	329.094
793.401	461.678
796.776	592.035
800.151	666.178
803.526	675.038
806.9	595.416
810.275	462.273
813.65	322.366
817.025	208.168
820.4	127.764
823.774	81.7285
827.149	51.1063
830.524	33.4613
833.899	20.0978
837.274	12.8376
840.649	5.52629
844.023	3.13214
847.398	1.06474
850.773	0.518967
854.148	1.16637
857.523	3.3419
860.898	2.48344
864.272	0.401657
867.647	0.219772
871.022	4.48128
874.397	2.77797
877.771	0.043594
881.146	0.451691
884.521	3.05539
887.896	4.41861
891.271	2.03793
894.646	4.34891
898.02	2.95679
901.395	7.15747
904.77	7.55508
908.145	3.46822
911.52	3.76299
914.894	2.32983
918.269	6.07619
921.644	5.06624
925.019	10.3346
928.394	6.27296
931.769	4.70847
935.143	6.57468
938.518	8.90385
941.893	14.3337
945.268	21.8856
948.643	28.4135
952.018	47.5149
955.392	78.3208
958.767	124.908
962.142	199.971
965.517	308.942
968.892	428.964
972.266	558.183
975.641	654.957
979.016	551.243
982.391	300.887
985.766	134.685
989.141	67.3681
992.515	40.2226
995.89	24.4789
999.265	18.8358
1002.64	10.0353
1006.01	2.64175
1009.39	3.50095
1012.76	1.10938
1016.14	0.861176
1019.51	0.500031
1022.89	3.55521
1026.26	0.269745
1029.64	0.148376
1033.01	4.33035
1036.39	4.03686
1039.76	8.28528
1043.14	8.85748
1046.51	10.0694
1049.89	13.7339
1053.26	20.2551
1056.64	13.373
1060.01	13.7173
1063.39	12.03
1066.76	7.52521
1070.14	9.31641
1073.51	14.5628
1076.89	16.3749
1080.26	18.7952
1083.63	18.7401
1087.01	17.1142
1090.38	20.8781
1093.76	21.3657
1097.13	24.2777
1100.51	19.7172
1103.88	17.9904
1107.26	14.7747
1110.63	11.955
1114.01	12.2325
1117.38	9.04559
1120.76	13.2555
1124.13	11.5124
1127.51	8.36783
1130.88	6.05502
1134.26	10.8543
1137.63	10.0867
1141.01	9.97211
1144.38	11.9424
1147.76	9.51697
1151.13	9.83554
1154.51	10.3829
1157.88	6.87399
1161.26	5.63886
1164.63	8.98343
1168.01	4.92248
1171.38	0.794708
1174.76	1.76184
1178.13	0.134033
1181.51	2.12677
1184.88	2.08954
1188.26	0.690796
1191.63	2.48962
1195	1.70999
1198.38	2.4299
1201.75	1.4433
1205.13	4.72406
1208.5	0.166138
1211.88	3.5723
1215.25	1.82819
1218.63	8.53748
1222	5.63599
1225.38	1.76242
1228.75	9.80371
1232.13	9.75659
1235.5	11.2541
1238.88	14.5797
1242.25	8.55896
1245.63	6.41141
1249	6.85971
1252.38	9.58206
1255.75	12.1462
1259.13	6.00919
1262.5	10.1155
1265.88	8.49991
1269.25	7.5004
1272.62	4.16116
1276	7.28595
1279.38	4.48889
