Measurement: Raman, 532 nm, unoriented, Raman Data Processed
Mineral: Olsacherite
Rruff sample: R140741
Ideal chemistry: Pb^2+^_2_(Se^6+^O_4_)(S^6+^O_4_)
Locality: Virgen De Surumi mine, Pakajake Canyon, Chayanta Province, Potos√≠ Department, Bolivia
Source: Rock Currier
Description: Sprays of colorless prismatic crystals. This sample was originally labeled as mandarinoite.
Raman shift (cm-1)	intensity
88.1367	0
91.5115	12.113
94.8863	4.99512
98.2612	2.48969
101.636	19.2007
105.011	42.1061
108.386	111.594
111.76	180.584
115.135	239.668
118.51	289.035
121.885	318.74
125.26	340.212
128.635	361.176
132.009	375.776
135.384	387.783
138.759	384.577
142.134	359.898
145.509	317.756
148.883	256.274
152.258	218.454
155.633	179.373
159.008	137.712
162.383	106.162
165.757	88.0319
169.132	66.3505
172.507	54.7281
175.882	45.1974
179.257	35.9792
182.632	38.7636
186.006	40.6724
189.381	37.9535
192.756	41.8852
196.131	43.635
199.506	50.2794
202.881	57.1071
206.255	64.1747
209.63	70.6983
213.005	82.4408
216.38	81.5776
219.755	87.1001
223.129	84.154
226.504	84.5333
229.879	80.7771
233.254	70.0895
236.629	63.0393
240.004	58.2373
243.378	44.8471
246.753	36.5625
250.128	31.5205
253.503	14.4723
256.878	10.4649
260.252	1.56064
263.627	1.22524
267.002	3.13206
270.377	5.90279
273.752	3.66354
277.127	3.85997
280.501	6.59314
283.876	3.09969
287.251	2.03165
290.626	1.32649
294.001	2.22041
297.375	6.58058
300.75	3.35288
304.125	6.83972
307.5	8.79114
310.875	13.5265
314.25	12.9764
317.624	18.1521
320.999	16.9256
324.374	16.8038
327.749	17.4343
331.124	15.8951
334.498	15.6809
337.873	19.3873
341.248	26.3528
344.623	47.2956
347.998	71.5762
351.373	112.626
354.747	165.568
358.122	228.493
361.497	276.407
364.872	332.431
368.247	360.738
371.621	379.486
374.996	376.168
378.371	364.294
381.746	339.315
385.121	308.036
388.495	264.323
391.87	215.595
395.245	169.548
398.62	132.33
401.995	99.6331
405.37	70.6323
408.744	44.3175
412.119	20.3811
415.494	2.77629
418.869	1.55417
422.244	3.46034
425.618	31.591
428.993	82.8884
432.368	150.824
435.743	224.29
439.118	272.795
442.493	265.206
445.867	261.607
449.242	265.909
452.617	248.822
455.992	213.734
459.367	170.431
462.741	130.351
466.116	100.323
469.491	81.6252
472.866	63.652
476.241	47.9563
479.615	35.3262
482.99	25.7846
486.365	18.514
489.74	7.83197
493.115	5.69658
496.49	0.797028
499.864	3.9059
503.239	2.76044
506.614	1.75929
509.989	0.526352
513.364	1.28505
516.739	1.01566
520.113	4.11951
523.488	5.21785
526.863	8.31172
530.238	10.9455
533.613	9.39224
536.987	17.2214
540.362	17.5069
543.737	19.4551
547.112	22.443
550.487	24.6102
553.861	25.5194
557.236	26.6227
560.611	30.3235
563.986	27.4855
567.361	25.2196
570.736	23.2654
574.11	21.578
577.485	19.7427
580.86	20.6289
584.235	23.7398
587.61	32.3267
590.985	47.7479
594.359	65.1841
597.734	92.586
601.109	119.076
604.484	122.408
607.859	102.008
611.233	79.5063
614.608	62.7205
617.983	53.5232
621.358	50.5304
624.733	50.2484
628.107	43.0139
631.482	33.1657
634.857	20.8672
638.232	13.8936
641.607	4.59479
644.982	0.484009
648.356	3.95105
651.731	4.54115
655.106	2.98711
658.481	2.70001
661.856	0.81192
665.231	3.34462
668.605	9.32076
671.98	13.9795
675.355	14.5392
678.73	21.1325
682.105	28.8051
685.479	30.3404
688.854	37.5505
692.229	41.3631
695.604	48.2101
698.979	54.0207
702.354	53.29
705.728	62.2419
709.103	59.0185
712.478	57.4203
715.853	53.5485
719.227	50.701
722.602	52.872
725.977	45.4034
729.352	43.7985
732.727	38.6388
736.102	37.7972
739.476	37.2801
742.851	34.721
746.226	29.0801
749.601	25.9123
752.976	15.8541
756.351	14.1202
759.725	11.7105
763.1	9.13736
766.475	21.1853
769.85	34.7849
773.225	60.3826
776.599	101.78
779.974	178.64
783.349	291.667
786.724	475.508
790.099	724.357
793.473	1045.18
796.848	1374.34
800.223	1607.54
803.598	1664.66
806.973	1525.22
810.348	1229.41
813.722	875.47
817.097	578.855
820.472	362.442
823.847	222.089
827.222	136.624
830.597	83.9984
833.971	52.3538
837.346	31.382
840.721	20.1295
844.096	10.0031
847.471	0.325317
850.846	4.11983
854.22	4.38084
857.595	1.52469
860.97	1.14494
864.345	3.06836
867.72	1.50067
871.094	0.409409
874.469	1.384
877.844	0.925369
881.219	2.45659
884.594	5.44748
887.968	4.98991
891.343	5.98872
894.718	6.85332
898.093	13.0226
901.468	10.182
904.842	13.6865
908.217	13.2296
911.592	10.2936
914.967	13.6207
918.342	9.49434
921.717	11.5166
925.091	13.0824
928.466	13.2856
931.841	13.1107
935.216	15.4411
938.591	14.1265
941.966	22.9999
945.34	32.9755
948.715	52.2924
952.09	87.8687
955.465	143.326
958.84	232.461
962.214	382.687
965.589	587.174
968.964	822.819
972.339	1084.07
975.714	1309.67
979.088	1262.76
982.463	798.072
985.838	366.908
989.213	170.481
992.588	86.8255
995.963	49.9531
999.337	28.8871
1002.71	19.4395
1006.09	9.08873
1009.46	4.08653
1012.84	0.333237
1016.21	1.67978
1019.59	2.14929
1022.96	1.13992
1026.34	1.90138
1029.71	3.23056
1033.09	4.08191
1036.46	5.95668
1039.84	5.90825
1043.21	12.5071
1046.59	20.3467
1049.96	32.9829
1053.33	44.9992
1056.71	35.1163
1060.08	19.3979
1063.46	23.2164
1066.83	23.4223
1070.21	24.8464
1073.58	28.8546
1076.96	28.053
1080.33	33.1418
1083.71	35.1561
1087.08	32.3685
1090.46	34.2453
1093.83	33.3866
1097.21	38.35
1100.58	37.4671
1103.96	39.9912
1107.33	33.3554
1110.71	32.8778
1114.08	32.786
1117.46	27.2257
1120.83	29.1476
1124.21	27.1329
1127.58	20.1843
1130.95	19.762
1134.33	21.4241
1137.7	23.8715
1141.08	21.8178
1144.45	22.861
1147.83	22.0519
1151.2	22.2493
1154.58	18.0317
1157.95	14.4973
1161.33	15.9042
1164.7	12.7996
1168.08	14.6069
1171.45	10.0264
1174.83	9.3678
1178.2	6.22824
1181.58	2.26166
1184.95	0.378372
1188.33	0.547668
1191.7	0.380997
1195.08	0.487305
1198.45	0.145691
1201.83	1.81888
1205.2	0.140671
1208.58	1.86732
1211.95	0.752274
1215.33	1.04582
1218.7	2.15381
1222.08	0.700317
1225.45	2.96439
1228.83	3.32539
1232.2	0.647781
1235.58	3.89807
1238.95	4.86418
1242.32	6.04689
1245.7	5.24786
1249.07	6.718
1252.45	8.70316
1255.82	8.47256
1259.2	8.97591
1262.57	4.41632
1265.95	7.25093
1269.32	5.25105
1272.7	5.76727
1276.07	3.75601
1279.45	3.28836
1282.82	2.39548
1286.2	3.23732
1289.57	4.03148
1292.95	3.13403
1296.32	0.374359
1299.7	2.03861
