Measurement: Raman, 532 nm, unoriented, Raman Data Processed
Mineral: Perovskite
Rruff sample: R160074
Ideal chemistry: CaTi^4+^O_3_
Locality: Zlatoust, Southern Ural Mountains, Chelyabinsk, Russia
Source: UAMM
Raman shift (cm-1)	intensity
88.1367	0
91.5115	69.5878
94.8863	49.2098
98.2612	16.0432
101.636	4.0824
105.011	100.616
108.386	317.327
111.76	525.189
115.135	802.997
118.51	1014.3
121.885	1140.33
125.26	1209.99
128.635	1224.01
132.009	1241.41
135.384	1246.56
138.759	1273.06
142.134	1205.09
145.509	1149.89
148.883	1097.54
152.258	1052.3
155.633	966.694
159.008	843.74
162.383	753.091
165.757	667.819
169.132	603.433
172.507	602.76
175.882	706.806
179.257	852.282
182.632	696.972
186.006	452.629
189.381	295.732
192.756	204.738
196.131	148.054
199.506	90.0347
202.881	39.4868
206.255	27.6516
209.63	45.4236
213.005	112.062
216.38	226.804
219.755	411.389
223.129	573.667
226.504	503.704
229.879	384.182
233.254	367.094
236.629	443.812
240.004	653.275
243.378	974.048
246.753	1025.63
250.128	740.283
253.503	468.649
256.878	300.625
260.252	175.237
263.627	65.6946
267.002	14.8354
270.377	71.6021
273.752	73.2605
277.127	23.2554
280.501	158.377
283.876	257.64
287.251	291.423
290.626	284.51
294.001	269.032
297.375	235.175
300.75	212.679
304.125	194.491
307.5	161.471
310.875	134.489
314.25	107.657
317.624	78.1916
320.999	72.7297
324.374	84.6462
327.749	98.7869
331.124	124.276
334.498	189.794
337.873	255.927
341.248	302.736
344.623	299.406
347.998	251.673
351.373	208.469
354.747	147.397
358.122	98.1155
361.497	84.3047
364.872	103.995
368.247	119.693
371.621	141.809
374.996	168.378
378.371	207.289
381.746	249.636
385.121	281.049
388.495	266.045
391.87	258.76
395.245	320.51
398.62	383.591
401.995	369.62
405.37	276.159
408.744	172.525
412.119	101.078
415.494	43.0544
418.869	1.26978
422.244	22.9358
425.618	35.9424
428.993	16.0488
432.368	35.1829
435.743	107.916
439.118	165.488
442.493	123.797
445.867	60.8147
449.242	31.1143
452.617	46.1248
455.992	102.094
459.367	143.166
462.741	191.052
466.116	243.487
469.491	271.378
472.866	218.484
476.241	143.7
479.615	106.316
482.99	113.091
486.365	149.684
489.74	203.871
493.115	273.162
496.49	235.154
499.864	194.898
503.239	166.226
506.614	139.342
509.989	129.626
513.364	137.202
516.739	143.972
520.113	168.109
523.488	201.555
526.863	233.562
530.238	248.659
533.613	255.73
536.987	241.397
540.362	208.558
543.737	172.723
547.112	138.124
550.487	109.147
553.861	70.9322
557.236	39.0286
560.611	12.5418
563.986	4.87195
567.361	16.3495
570.736	13.1738
574.11	7.54456
577.485	1.0249
580.86	30.7748
584.235	72.1582
587.61	103.768
590.985	125.97
594.359	123.127
597.734	107.61
601.109	101.042
604.484	121.465
607.859	128.106
611.233	151.536
614.608	179.795
617.983	210.409
621.358	231.063
624.733	254.241
628.107	263.484
631.482	260.576
634.857	263.667
638.232	266.673
641.607	250.414
644.982	236.345
648.356	229.342
651.731	209.644
655.106	189.826
658.481	180.025
661.856	168.637
665.231	158.8
668.605	157.7
671.98	152.289
675.355	131.933
678.73	105.485
682.105	90.5741
685.479	70.8019
688.854	40.8281
692.229	18.375
695.604	1.62427
698.979	7.95532
702.354	16.1337
705.728	18.4435
709.103	7.58655
712.478	0.230713
715.853	6.40186
719.227	21.1316
722.602	39.8063
725.977	59.5365
729.352	78.1305
732.727	104.165
736.102	122.497
739.476	136.548
742.851	146.25
746.226	157.478
749.601	175.449
752.976	191.413
756.351	211.383
759.725	229.107
763.1	245.024
766.475	261.776
769.85	290.512
773.225	311.316
776.599	334.712
779.974	361.277
783.349	389.211
786.724	409.929
790.099	423.375
793.473	430.396
796.848	426.283
800.223	409.055
803.598	366.909
806.973	338.048
810.348	293.788
813.722	257.423
817.097	224.874
820.472	201.517
823.847	182.755
827.222	172.208
830.597	168.302
833.971	172.196
837.346	185.808
840.721	184.649
844.096	186.502
847.471	179.439
850.846	157.275
854.22	124.15
857.595	87.9106
860.97	65.2031
864.345	36.4235
867.72	17.8416
871.094	5.97015
874.469	0.877075
877.844	8.84509
881.219	12.8929
884.594	8.10052
887.968	6.61682
891.343	5.02618
894.718	4.10352
898.093	1.33368
901.468	10.6027
904.842	6.17822
908.217	15.3767
911.592	12.3796
914.967	19.0651
918.342	21.6281
921.717	27.8761
925.091	31.0292
928.466	33.7079
931.841	35.7339
935.216	37.6915
938.591	31.1564
941.966	33.2241
945.34	23.5671
948.715	21.364
952.09	19.584
955.465	15.0271
958.84	12.6082
962.214	13.7394
965.589	11.0417
968.964	9.49756
972.339	9.01764
975.714	9.7663
979.088	8.77045
982.463	4.76617
985.838	5.09552
989.213	4.5871
992.588	5.48083
995.963	3.71851
999.337	7.05151
1002.71	4.75024
1006.09	8.06799
1009.46	5.04254
1012.84	7.08069
1016.21	3.25049
1019.59	4.05566
1022.96	5.53516
1026.34	7.96497
1029.71	10.2108
1033.09	11.2128
1036.46	8.89374
1039.84	10.2949
1043.21	12.1102
1046.59	10.626
1049.96	9.0708
1053.33	16.0133
1056.71	12.7398
1060.08	14.86
1063.46	10.9531
1066.83	11.207
1070.21	11.7632
1073.58	17.4596
1076.96	9.95972
1080.33	8.61755
1083.71	13.0591
1087.08	22.2914
1090.46	11.9478
1093.83	3.6673
1097.21	4.99481
1100.58	3.49634
1103.96	4.57867
1107.33	0.180176
1110.71	3.75653
1114.08	1.42413
1117.46	1.29871
1120.83	4.33246
1124.21	1.38275
1127.58	0.664001
1130.95	0.489563
1134.33	0.068359
1137.7	2.82135
1141.08	2.98792
1144.45	0.999817
1147.83	5.86865
1151.2	2.45532
1154.58	1.68549
1157.95	6.74048
1161.33	6.48547
1164.7	3.22858
1168.08	1.98047
1171.45	1.81696
1174.83	15.876
1178.2	6.67389
1181.58	4.87775
1184.95	6.83337
1188.33	7.70654
1191.7	8.14386
1195.08	7.64679
1198.45	5.30865
1201.83	7.36462
1205.2	1.68237
1208.58	0.092346
1211.95	1.88989
1215.33	4.20032
1218.7	4.63464
1222.08	6.70117
1225.45	3.29059
1228.83	4.32971
1232.2	3.28546
1235.58	1.11389
1238.95	2.39551
1242.32	5.05115
1245.7	4.94592
1249.07	7.02643
1252.45	0.036011
1255.82	4.99133
1259.2	6.09833
1262.57	2.93603
1265.95	0.885437
1269.32	2.14563
1272.7	1.63434
1276.07	1.15912
1279.45	0.173645
1282.82	3.05719
1286.2	3.07257
1289.57	3.23004
1292.95	2.85211
1296.32	0.334961
1299.7	1.66064
