Measurement: Raman, 780 nm, unoriented, Raman Data Processed
Mineral: Perovskite
Rruff sample: R160074
Ideal chemistry: CaTi^4+^O_3_
Locality: Zlatoust, Southern Ural Mountains, Chelyabinsk, Russia
Source: UAMM
Raman shift (cm-1)	intensity
87.582	0
90.4747	178.966
93.3674	438.228
96.2601	232.803
99.1528	61.1443
102.046	9.76367
104.938	1.82935
107.831	15.6187
110.724	1.00073
113.616	18.2199
116.509	33.9438
119.402	79.6681
122.294	93.2498
125.187	96.1991
128.08	79.1864
130.972	83.4625
133.865	44.6585
136.758	34.4661
139.651	14.4371
142.543	50.36
145.436	15.0635
148.329	66.8478
151.221	64.6093
154.114	78.4192
157.007	71.2508
159.9	84.902
162.792	71.6254
165.685	41.6934
168.578	48.5153
171.47	23.4662
174.363	64.3294
177.256	97.7577
180.149	96.2607
183.041	62.6272
185.934	69.4326
188.827	18.428
191.719	12.9594
194.612	10.1228
197.505	21.3923
200.397	12.8425
203.29	7.51526
206.183	0.120728
209.076	13.9978
211.968	34.9202
214.861	53.1931
217.754	92.0577
220.646	130.643
223.539	145.145
226.432	147.702
229.324	116.564
232.217	140.281
235.11	178.919
238.002	293.415
240.895	386.295
243.788	549.657
246.681	625.237
249.573	583.71
252.466	565.968
255.359	565.559
258.251	629.99
261.144	605.318
264.037	594.022
266.93	603.175
269.822	639.568
272.715	701.702
275.608	745.428
278.5	824.076
281.393	735.236
284.286	610.321
287.178	435.871
290.071	287.71
292.964	183.645
295.856	112.284
298.749	50.5261
301.642	5.41235
304.535	45.8984
307.427	94.2927
310.32	197.071
313.213	329.206
316.105	347.344
318.998	323.031
321.891	198.394
324.784	57.6208
327.676	5.49048
330.569	58.3208
333.462	20.4453
336.354	17.0588
339.247	4.05396
342.14	70.0388
345.032	105.009
347.925	223.73
350.818	349.899
353.711	489.731
356.603	717.433
359.496	932.417
362.389	1117.48
365.281	1313.76
368.174	1366.32
371.067	1284.38
373.959	1164.27
376.852	952.152
379.745	779.024
382.637	633.135
385.53	559.208
388.423	456.918
391.316	420.807
394.208	383.57
397.101	364.699
399.994	367.301
402.886	351.615
405.779	316.824
408.672	340.484
411.565	383.173
414.457	435.395
417.35	580.885
420.243	801.006
423.135	987.533
426.028	1149.55
428.921	1148.13
431.813	1034.58
434.706	822.71
437.599	605.557
440.492	369.369
443.384	213.016
446.277	108.107
449.17	5.24341
452.062	21.1118
454.955	40.169
457.848	16.0425
460.74	30.0098
463.633	53.5034
466.526	163.81
469.419	256.13
472.311	364.82
475.204	432.96
478.097	577.8
480.989	698.375
483.882	790.353
486.775	860.341
489.668	845.659
492.56	823.888
495.453	808.981
498.346	873.269
501.238	974.71
504.131	1091.12
507.024	1327.76
509.916	1502.39
512.809	1579.45
515.702	1493.93
518.595	1249.56
521.487	1025.23
524.38	799.764
527.273	598.721
530.165	391.721
533.058	295.556
535.951	215.487
538.843	89.7956
541.736	0.556152
544.629	34.5281
547.521	14.8257
550.414	23.043
553.307	141.65
556.2	281.659
559.092	534.202
561.985	844.912
564.878	1193.73
567.77	1534.8
570.663	1700.89
573.556	1638.91
576.448	1437.72
579.341	1162.66
582.234	870.101
585.127	665.811
588.019	480.858
590.912	353.31
593.805	265.995
596.697	192.487
599.59	170.394
602.483	148.514
605.375	84.9781
608.268	110.618
611.161	82.5555
614.054	122.877
616.946	71.9369
619.839	93.4325
622.732	82.0245
625.625	53.2417
628.517	65.531
631.41	31.1943
634.303	43.4216
637.195	52.7848
640.088	25.2792
642.981	20.3951
645.873	7.09973
648.766	0.508179
651.659	15.3551
654.552	11.4916
657.444	19.0718
660.337	2.74622
663.23	8.60376
666.122	2.67603
669.015	15.0637
671.908	2.34143
674.8	27.5491
677.693	52.8174
680.586	45.0863
683.479	52.9945
686.371	64.0421
689.264	73.8931
692.157	122.843
695.049	123.455
697.942	157.862
700.835	150.315
703.727	180.575
706.62	187.581
709.513	202.65
712.405	213.459
715.298	237.652
718.191	245.777
721.084	225.95
723.976	211.428
726.869	198.92
729.762	163.35
732.654	154.465
735.547	136.935
738.44	133.787
741.332	127.295
744.225	90.579
747.118	100.56
750.011	85.7095
752.903	99.478
755.796	87.7224
758.689	67.9242
761.581	87.1648
764.474	74.3169
767.367	86.9875
770.26	74.6332
773.152	78.2468
776.045	78.2883
778.938	47.9564
781.83	41.2561
784.723	38.2797
787.616	58.1888
790.508	51.0969
793.401	34.4434
796.294	53.0238
799.187	51.7916
802.079	32.1926
804.972	43.426
807.865	36.4441
810.757	10.8261
813.65	11.6616
816.543	1.10254
819.435	26.8636
822.328	1.69641
825.221	8.76941
828.114	13.9813
831.006	6.63916
833.899	14.2303
836.792	24.335
839.684	52.8447
842.577	71.3325
845.47	77.6446
848.362	103.939
851.255	123.494
854.148	136.724
857.04	166.043
859.933	183.875
862.826	180.262
865.719	222.961
868.611	217.627
871.504	204.512
874.397	214.2
877.289	222.067
880.182	209.213
883.075	233.692
885.967	219.071
888.86	222.282
891.753	196.865
894.646	159.055
897.538	120.875
900.431	101.469
903.324	101.569
906.216	84.5397
909.109	68.8921
912.002	67.2911
914.894	63.6373
917.787	74.6562
920.68	88.4213
923.573	36.5984
926.465	61.9026
929.358	40.1458
932.251	18.6542
935.143	20.9439
938.036	4.3186
940.929	12.014
943.822	3.98364
946.714	5.8822
949.607	8.8399
952.5	7.93951
955.392	0.154114
958.285	23.6333
961.178	33.2233
964.07	1.41925
966.963	45.1055
969.856	48.0891
972.749	56.1373
975.641	53.2537
978.534	58.8076
981.427	72.0967
984.319	103.632
987.212	112.646
990.105	139.011
992.997	166.564
995.89	183.016
998.783	216.005
1001.68	240.257
1004.57	212.446
1007.46	241.049
1010.35	231.509
1013.25	223.772
1016.14	203.783
1019.03	167.705
1021.92	136.273
1024.82	109.846
1027.71	75.7039
1030.6	64.2308
1033.49	41.3357
1036.39	44.522
1039.28	37.2814
1042.17	33.7656
1045.07	42.1558
1047.96	44.4714
1050.85	27.9153
1053.74	48.4881
1056.64	31.0861
1059.53	43.3005
1062.42	45.7358
1065.32	62.9404
1068.21	69.9299
1071.1	54.48
1073.99	90.2289
1076.89	80.4081
1079.78	106.506
1082.67	97.6452
1085.56	104.828
1088.46	59.3235
1091.35	88.3669
1094.24	69.9509
1097.13	85.4972
1100.03	74.4769
1102.92	63.5067
1105.81	71.8862
1108.71	51.0574
1111.6	37.1149
1114.49	43.6432
1117.38	14.0488
1120.28	21.4609
1123.17	15.5557
1126.06	7.05798
1128.95	0.522461
1131.85	16.522
1134.74	11.6126
1137.63	6.36633
1140.53	4.82947
1143.42	7.42969
1146.31	1.67834
1149.2	20.4817
1152.1	35.4331
1154.99	37.3497
1157.88	60.5493
1160.77	47.7178
1163.67	30.9023
1166.56	63.7751
1169.45	62.4896
1172.35	71.9406
1175.24	43.7345
1178.13	58.1937
1181.02	61.5162
1183.92	36.6748
1186.81	6.48486
1189.7	46.0977
1192.59	26.7168
1195.49	20.0295
1198.38	29.8259
1201.27	30.2937
1204.16	30.2705
1207.06	68.4941
1209.95	70.1865
1212.84	74.4258
1215.73	91.8589
1218.63	83.2842
1221.52	98.7556
1224.41	63.3496
1227.31	51.3884
1230.2	23.2712
1233.09	35.4958
1235.98	20.929
1238.88	13.1416
1241.77	0
