Measurement: Raman, 532 nm, unoriented, Raman Data Processed
Mineral: Piemontite
Rruff sample: R150096
Ideal chemistry: Ca_2_(Al_2_Mn^3+^)(Si_2_O_7_)(SiO_4_)O(OH)
Locality: Ash Canyon, Huachuca Mountains, Cochise County, Arizona, USA
Source: Marcus Origlieri
Description: Red prismatic crystals, associated with yellow tabular or massive axinite-(Mn), on white quartz matrix
Raman shift (cm-1)	intensity
145.991	0
148.883	1.66229
151.776	2.11499
154.669	10.8905
157.561	2.85529
160.454	0.730896
163.347	7.77826
166.24	3.37671
169.132	8.85632
172.025	15.3481
174.918	13.903
177.81	9.33539
180.703	9.98462
183.596	11.9014
186.488	20.5446
189.381	16.8583
192.274	6.60962
195.167	0.978333
198.059	2.04492
200.952	1.84003
203.845	4.81091
206.737	6.48334
209.63	11.1539
212.523	12.4426
215.416	20.2883
218.308	22.9133
221.201	28.4304
224.094	38.692
226.986	42.6385
229.879	49.1943
232.772	54.4687
235.664	52.4241
238.557	54.4555
241.45	64.0908
244.343	77.4326
247.235	84.3966
250.128	74.212
253.021	64.7691
255.913	50.8528
258.806	43.5043
261.699	36.6664
264.591	32.5842
267.484	27.6747
270.377	26.3356
273.27	27.8135
276.162	26.7734
279.055	18.2178
281.948	7.68817
284.84	8.08643
287.733	8.35699
290.626	6.79584
293.519	9.82929
296.411	11.5519
299.304	6.53351
302.197	2.08386
305.089	0.932983
307.982	0.188538
310.875	0.502319
313.767	2.50989
316.66	3.01166
319.553	5.79669
322.445	8.91992
325.338	12.5519
328.231	16.9669
331.124	15.5872
334.016	17.587
336.909	16.1183
339.802	15.0023
342.694	16.0264
345.587	24.2496
348.48	31.1863
351.373	37.866
354.265	36.7526
357.158	32.6763
360.051	24.4744
362.943	25.0329
365.836	20.8755
368.729	15.184
371.621	9.00192
374.514	4.57773
377.407	4.29239
380.3	5.11395
383.192	7.73682
386.085	12.2483
388.978	17.7811
391.87	21.8494
394.763	17.7541
397.656	10.3399
400.548	1.73871
403.441	2.23422
406.334	4.32263
409.226	1.81052
412.119	6.71838
415.012	19.1926
417.905	30.7739
420.797	52.7104
423.69	75.4273
426.583	89.7537
429.475	87.3858
432.368	76.0006
435.261	76.0326
438.154	74.7761
441.046	72.6997
443.939	77.4113
446.832	86.5388
449.724	92.1696
452.617	79.2669
455.51	62.3779
458.402	49.4471
461.295	39.2261
464.188	32.5848
467.08	25.2703
469.973	19.5968
472.866	16.4521
475.759	10.8008
478.651	9.98251
481.544	10.9607
484.437	16.3864
487.329	20.374
490.222	24.8671
493.115	29.4056
496.007	33.5204
498.9	38.0937
501.793	47.3242
504.686	54.971
507.578	59.3991
510.471	59.862
513.364	53.5441
516.256	38.5186
519.149	28.6001
522.042	25.4744
524.934	26.338
527.827	19.8848
530.72	4.60172
533.613	0.936066
536.505	1.45065
539.398	2.86099
542.291	3.39795
545.183	2.97592
548.076	7.82599
550.969	19.2614
553.861	34.8971
556.754	54.78
559.647	74.4383
562.54	104.178
565.432	140.729
568.325	151.863
571.218	100.234
574.11	49.9343
577.003	33.5882
579.896	27.6492
582.788	32.9934
585.681	41.6632
588.574	51.5509
591.467	64.4277
594.359	76.2055
597.252	91.1691
600.145	99.3024
603.037	89.751
605.93	73.6104
608.823	56.4192
611.716	38.4206
614.608	26.8967
617.501	22.1999
620.394	14.8589
623.286	8.16992
626.179	7.00494
629.072	4.45792
631.964	3.53098
634.857	1.01398
637.75	0.483948
640.643	3.04538
643.535	1.43845
646.428	0.118958
649.321	1.37857
652.213	2.60361
655.106	2.5303
657.999	3.75009
660.891	6.65469
663.784	3.2074
666.677	3.72345
669.569	3.29309
672.462	5.88583
675.355	5.81222
678.248	5.36325
681.14	6.06738
684.033	5.85538
686.926	7.68289
689.818	6.54038
692.711	5.23731
695.604	7.70667
698.496	5.46381
701.389	5.45483
704.282	1.09064
707.175	1.64035
710.067	3.21951
712.96	1.96368
715.853	0.349762
718.745	0.945648
721.638	2.03647
724.531	0.38327
727.423	1.03595
730.316	1.45407
733.209	2.11261
736.102	3.39447
738.994	2.63513
741.887	0.51709
744.78	1.21796
747.672	2.53531
750.565	2.99188
753.458	1.74542
756.351	2.7301
759.243	0.682281
762.136	2.17728
765.029	2.80255
767.921	1.39737
770.814	5.48682
773.707	1.6023
776.599	2.11499
779.492	1.46796
782.385	1.29947
785.278	0.323944
788.17	1.62982
791.063	0.014679
793.956	0.228333
796.848	1.35986
799.741	0.186676
802.634	0.838989
805.526	0.78418
808.419	1.52075
811.312	2.07837
814.205	2.44421
817.097	4.70767
819.99	7.11194
822.883	9.46149
825.775	11.6312
828.668	15.6938
831.561	14.7722
834.453	14.9074
837.346	15.4688
840.239	14.805
843.132	14.6115
846.024	12.8569
848.917	16.4141
851.81	19.0838
854.702	20.2551
857.595	20.863
860.488	26.7878
863.38	29.1594
866.273	32.6186
869.166	33.5237
872.059	32.4149
874.951	32.5964
877.844	31.4586
880.737	34.2159
883.629	33.2299
886.522	30.1477
889.415	29.7132
892.308	32.1549
895.2	26.9901
898.093	26.729
900.986	29.9576
903.878	37.1399
906.771	48.3996
909.664	61.2852
912.556	69.5041
915.449	78.1607
918.342	79.2712
921.235	69.8596
924.127	55.7236
927.02	40.4233
929.913	23.3023
932.805	17.0402
935.698	9.81506
938.591	2.92603
941.483	0.082275
944.376	0.855286
947.269	3.06641
950.162	2.29141
953.054	0.137421
955.947	2.52866
958.84	4.4292
961.732	5.22192
964.625	2.23004
967.518	2.11697
970.41	4.35803
973.303	8.40973
976.196	15.7026
979.088	21.167
981.981	24.4214
984.874	23.0854
987.767	17.3809
990.659	10.9644
993.552	8.20993
996.445	5.95065
999.337	2.02191
1002.23	1.34766
1005.12	0.815765
1008.02	1.60483
1010.91	0.241272
1013.8	2.65646
1016.69	7.34485
1019.59	7.09796
1022.48	8.9494
1025.37	8.27271
1028.26	14.0144
1031.16	13.0785
1034.05	12.5487
1036.94	14.0979
1039.84	13.7345
1042.73	15.0054
1045.62	14.7222
1048.51	15.0124
1051.41	16.5628
1054.3	17.1591
1057.19	17.9582
1060.08	18.0878
1062.98	15.6845
1065.87	15.3422
1068.76	14.5766
1071.65	15.4419
1074.55	21.997
1077.44	31.0266
1080.33	39.2614
1083.23	48.628
1086.12	58.9849
1089.01	61.8665
1091.9	55.1892
1094.8	34.1199
1097.69	17.1796
1100.58	9.33704
1103.47	6.62451
1106.37	2.77243
1109.26	3.8941
1112.15	2.1308
1115.05	1.77121
1117.94	0.059845
1120.83	0.073822
1123.72	1.23981
1126.62	1.87079
1129.51	0.223907
1132.4	0.686218
1135.29	0.32785
1138.19	0.526886
1141.08	0.081909
1143.97	2.37299
1146.87	0.817505
1149.76	0.745392
1152.65	1.57971
1155.54	1.40653
1158.44	0.288879
1161.33	1.66446
1164.22	0.900879
1167.11	3.71494
1170.01	3.73587
1172.9	0.131897
1175.79	2.19321
1178.68	0.662994
1181.58	0.990967
1184.47	4.10944
1187.36	4.074
1190.26	4.46289
1193.15	2.56046
1196.04	5.133
1198.93	5.99435
1201.83	4.20093
1204.72	3.02469
1207.61	4.32114
1210.51	2.87585
1213.4	3.13687
1216.29	1.49222
1219.18	4.08716
1222.08	3.6962
1224.97	3.18326
1227.86	1.40305
1230.75	1.12796
1233.65	1.63718
1236.54	0.945374
1239.43	3.02762
1242.32	0.936646
1245.22	1.47052
1248.11	0.086578
1251	2.79538
1253.89	2.51749
1256.79	4.17481
1259.68	1.60587
1262.57	1.25879
1265.47	1.30395
1268.36	0.120758
1271.25	2.65894
1274.14	2.53775
1277.04	1.56256
1279.93	1.42487
1282.82	0.912933
1285.71	3.57788
1288.61	4.72665
1291.5	2.69174
1294.39	0.036102
1297.29	1.5672
1300.18	0.49588
