Measurement: Raman, 780 nm, unoriented, Raman Data Processed
Mineral: Piemontite
Rruff sample: R150096
Ideal chemistry: Ca_2_(Al_2_Mn^3+^)(Si_2_O_7_)(SiO_4_)O(OH)
Locality: Ash Canyon, Huachuca Mountains, Cochise County, Arizona, USA
Source: Marcus Origlieri
Description: Red prismatic crystals, associated with yellow tabular or massive axinite-(Mn), on white quartz matrix
Raman shift (cm-1)	intensity
136.276	0
139.169	7.27904
142.061	1.78766
144.954	0.303864
147.847	4.50574
150.74	0.938995
153.632	1.89021
156.525	2.25977
159.418	0.628311
162.31	2.46211
165.203	0.095825
168.096	2.93169
170.988	3.70891
173.881	2.65877
176.774	0.371063
179.667	1.38808
182.559	2.14284
185.452	7.76028
188.345	10.7796
191.237	6.22261
194.13	0.878387
197.023	0.344635
199.916	1.50455
202.808	5.69362
205.701	8.3459
208.594	8.16762
211.486	9.65501
214.379	11.9829
217.272	15.2412
220.164	21.3152
223.057	27.7082
225.95	34.0493
228.843	42.3148
231.735	44.5001
234.628	41.4983
237.521	36.7814
240.413	38.1992
243.306	47.0324
246.199	55.1848
249.091	54.7423
251.984	49.5929
254.877	42.834
257.769	38.0933
260.662	32.394
263.555	27.1554
266.448	22.8308
269.34	20.7371
272.233	22.0693
275.126	24.251
278.018	20.1316
280.911	10.3618
283.804	5.27234
286.697	5.13938
289.589	6.10961
292.482	7.41389
295.375	8.34045
298.267	7.46941
301.16	4.11157
304.053	1.00511
306.945	0.278053
309.838	1.79427
312.731	0.919785
315.623	0.460449
318.516	2.2329
321.409	3.83728
324.302	5.7059
327.194	7.34745
330.087	5.70614
332.98	6.13416
335.873	5.00879
338.765	4.70804
341.658	4.51935
344.551	6.36829
347.443	9.59344
350.336	10.6161
353.229	9.67136
356.121	6.2587
359.014	4.27004
361.907	2.61104
364.8	0.530571
367.692	1.07899
370.585	0.262512
373.478	1.42618
376.37	1.03935
379.263	0.783287
382.156	2.72409
385.048	6.3382
387.941	10.7566
390.834	14.6976
393.726	12.3176
396.619	8.05164
399.512	3.36647
402.405	0.647751
405.297	0.668587
408.19	0.122704
411.083	1.74839
413.975	6.45245
416.868	10.0072
419.761	19.9437
422.654	30.9162
425.546	41.0318
428.439	41.8801
431.332	35.6067
434.224	30.5358
437.117	28.3007
440.01	29.1774
442.902	30.2099
445.795	36.9011
448.688	46.5054
451.58	46.2572
454.473	36.0041
457.366	25.9492
460.259	20.5594
463.151	16.8937
466.044	13.786
468.937	11.4983
471.829	9.08244
474.722	6.55852
477.615	3.91538
480.507	2.90827
483.4	4.09471
486.293	7.98513
489.186	7.90427
492.078	10.9385
494.971	12.4911
497.864	15.2291
500.756	19.0802
503.649	23.7135
506.542	26.6933
509.435	27.5526
512.327	26.0901
515.22	19.8129
518.112	14.8783
521.005	11.9141
523.898	13.3442
526.791	11.2899
529.683	5.97938
532.576	0.493523
535.469	1.36846
538.361	2.35284
541.254	1.62481
544.147	0.561966
547.04	1.6175
549.932	5.49122
552.825	11.0249
555.718	18.4211
558.61	25.5934
561.503	41.4247
564.396	66.5487
567.288	85.2324
570.181	70.3143
573.074	35.7252
575.967	18.0079
578.859	12.5422
581.752	12.2088
584.645	14.4389
587.537	18.9491
590.43	24.2714
593.323	30.5308
596.216	38.5095
599.108	44.6422
602.001	46.4773
604.894	38.0144
607.786	26.9733
610.679	18.4875
613.572	11.5987
616.464	7.45721
619.357	5.22488
622.25	3.19549
625.143	4.26943
628.035	3.33884
630.928	2.86752
633.821	2.73761
636.713	1.78579
639.606	1.95007
642.499	2.21978
645.391	1.91721
648.284	1.83076
651.177	1.5171
654.069	1.69304
656.962	2.12163
659.855	2.60626
662.748	2.54203
665.64	1.89143
668.533	1.03215
671.426	1.47999
674.318	1.16662
677.211	1.1577
680.104	2.02132
682.996	2.58682
685.889	3.4254
688.782	3.96349
691.675	3.75141
694.567	2.3583
697.46	1.00262
700.353	0.155422
703.245	0.130684
706.138	0.079689
709.031	0.16209
711.923	0.57671
714.816	0.6768
717.709	0.642967
720.602	0.212402
723.494	0.379303
726.387	0.15604
729.28	0.116154
732.172	0.313522
735.065	0.271336
737.958	0.650555
740.851	0.554775
743.743	1.0535
746.636	1.09441
749.529	1.68047
752.421	1.98613
755.314	1.31611
758.207	2.19632
761.099	2.48253
763.992	2.48739
766.885	2.18196
769.778	1.58765
772.67	1.5028
775.563	0.659428
778.456	0.88958
781.348	1.20912
784.241	0.753738
787.134	0.605148
790.026	0.142368
792.919	0.086094
795.812	0.189445
798.705	0.158939
801.597	0.325981
804.49	0.184063
807.383	0.531796
810.275	0.671246
813.168	0.735119
816.061	1.22939
818.953	2.73621
821.846	3.64382
824.739	5.05305
827.631	6.09383
830.524	7.16942
833.417	6.16803
836.31	6.23368
839.202	4.64225
842.095	4.58831
844.988	3.10727
847.88	3.357
850.773	4.00215
853.666	4.33153
856.558	6.78768
859.451	6.61915
862.344	7.4703
865.237	8.51773
868.129	10.5524
871.022	10.5066
873.915	11.2226
876.807	12.7972
879.7	11.9552
882.593	11.0436
885.486	10.8472
888.378	9.30926
891.271	9.2916
894.164	9.15278
897.056	7.20969
899.949	9.02821
902.842	11.4198
905.734	13.9812
908.627	19.5696
911.52	23.9378
914.413	32.7627
917.305	32.8407
920.198	31.5751
923.091	26.5052
925.983	19.9772
928.876	13.565
931.769	7.6568
934.661	4.45079
937.554	1.85115
940.447	0.793625
943.34	0.453407
946.232	0.345928
949.125	0.099644
952.018	0.506195
954.91	1.51784
957.803	2.59225
960.696	2.56317
963.588	1.91424
966.481	1.96336
969.374	2.63194
972.266	3.21946
975.159	6.12111
978.052	9.45945
980.945	13.4469
983.837	14.3094
986.73	12.0117
989.623	7.1151
992.515	4.60525
995.408	3.0907
998.301	2.11979
1001.19	0.251007
1004.09	0.212143
1006.98	0.466797
1009.87	0.757492
1012.76	0.323177
1015.66	0.076054
1018.55	1.25041
1021.44	0.914551
1024.34	2.02904
1027.23	2.73009
1030.12	2.30408
1033.01	2.62358
1035.91	3.43578
1038.8	3.91936
1041.69	4.71238
1044.58	5.09894
1047.48	5.42124
1050.37	5.38335
1053.26	6.14786
1056.15	7.3846
1059.05	9.00015
1061.94	9.48293
1064.83	8.88237
1067.73	7.04187
1070.62	6.96063
1073.51	8.91389
1076.4	11.7801
1079.3	15.6051
1082.19	19.4723
1085.08	24.8775
1087.97	29.1085
1090.87	29.2128
1093.76	20.444
1096.65	10.9502
1099.55	5.93824
1102.44	3.38449
1105.33	1.96771
1108.22	0.802692
1111.12	0.990013
1114.01	0.302868
1116.9	0.456226
1119.79	0.502853
1122.69	0.273613
1125.58	0.612377
1128.47	0.859425
1131.37	0.51926
1134.26	0.005383
1137.15	0.533405
1140.04	0.440598
1142.94	0.489571
1145.83	0.011105
1148.72	0.116928
1151.61	0.04557
1154.51	0.157707
1157.4	1.28521
1160.29	0.623894
1163.18	0.341709
1166.08	0.343275
1168.97	0.667696
1171.86	0.057217
1174.76	0.217348
1177.65	0.256824
1180.54	0.488934
1183.43	0.981384
1186.33	0.840736
1189.22	0.927496
1192.11	0.58555
1195.01	0.3251
1197.9	0.301191
1200.79	1.03713
1203.68	0.159567
1206.58	0.746946
1209.47	0.410666
1212.36	0.682678
1215.25	0.635048
1218.15	0.666002
1221.04	0.207727
1223.93	0.098761
1226.82	0.321861
1229.72	0.359003
1232.61	0.778591
1235.5	0.929863
1238.39	1.18485
1241.29	0.548824
1244.18	0.557232
1247.07	0.677805
1249.97	0.684752
1252.86	0.542757
1255.75	0.725468
1258.64	0.557119
1261.54	0.810207
1264.43	0.309769
1267.32	0.512163
1270.21	0.614689
1273.11	0.448866
1276	0.612289
1278.89	0.715813
1281.79	0.318853
