Measurement: Raman, 532 nm, unoriented, Raman Data Processed
Mineral: Protochabourneite
Rruff sample: R140583
Ideal chemistry: Tl^1+^_4-x_Pb^2+^_2+2x_Sb^3+^_20-x-y_As^3+^_y_S^2-^_34_ (with 0.02  x  0.34, 5.71  y  6.69)
Locality: Monte Arsiccio mine, Sant'Anna Di Stazzema, Stazzema, Apuan Alps, Lucca Province, Tuscany, Italy
Source: Stefan Schorn
Description: Black metallic crystals
Raman shift (cm-1)	intensity
101.154	0
104.529	0.521912
107.903	25.4711
111.278	25.1428
114.653	50.2791
118.028	69.4121
121.403	73.6824
124.778	86.8316
128.152	97.5252
131.527	112.946
134.902	118.561
138.277	137.81
141.652	130.212
145.026	120.388
148.401	113.281
151.776	105.598
155.151	101.455
158.526	86.0844
161.901	81.5229
165.275	73.602
168.65	66.7199
172.025	65.3241
175.4	62.6209
178.775	58.8994
182.149	59.9492
185.524	57.1031
188.899	56.943
192.274	43.7406
195.649	33.2963
199.024	25.1154
202.398	20.9384
205.773	18.7699
209.148	18.104
212.523	17.6855
215.898	13.9143
219.273	7.28967
222.647	0.8815
226.022	1.24747
229.397	4.04925
232.772	1.84433
236.147	1.59412
239.521	4.23108
242.896	6.89099
246.271	12.7257
249.646	26.6486
253.021	30.574
256.396	19.6334
259.77	12.8706
263.145	4.72543
266.52	0.099213
269.895	3.96619
273.27	1.87326
276.644	1.42481
280.019	3.53565
283.394	10.4631
286.769	16.9495
290.144	22.28
293.519	21.111
296.893	16.4179
300.268	17.0593
303.643	18.5258
307.018	22.2877
310.392	20.7811
313.767	22.3272
317.142	23.1202
320.517	20.0576
323.892	18.5714
327.267	15.108
330.641	10.2845
334.016	7.26993
337.391	3.10821
340.766	1.44028
344.141	0.480194
347.515	1.2869
350.89	0.730927
354.265	2.25104
357.64	0.588287
361.015	0.588379
364.39	0.460114
367.764	3.34317
371.139	3.05499
374.514	2.78958
377.889	1.2608
381.264	8.17633
384.639	5.61014
388.013	2.46307
391.388	1.966
394.763	3.74576
398.138	4.74381
401.513	4.27731
404.887	3.79254
408.262	2.06119
411.637	2.85165
415.012	4.16657
418.387	7.46759
421.762	7.80335
425.136	13.504
428.511	18.1298
431.886	21.3592
435.261	26.105
438.636	25.7486
442.01	22.4002
445.385	20.3306
448.76	18.5739
452.135	14.35
455.51	11.4512
458.885	9.71542
462.259	10.0212
465.634	6.47662
469.009	5.89088
472.384	8.34692
475.759	7.79201
479.133	10.0533
482.508	10.0443
485.883	7.95599
489.258	5.94223
492.633	6.00641
496.007	4.40884
499.382	4.18587
502.757	4.54279
506.132	3.81757
509.507	2.88654
512.882	2.64839
516.256	1.12187
519.631	1.49728
523.006	1.78427
526.381	1.14821
529.756	0.616562
533.13	1.60014
536.505	0.128586
539.88	0.578964
543.255	0.237244
546.63	0.800079
550.005	0.263519
553.379	0.643372
556.754	0.360931
560.129	2.16515
563.504	0.893051
566.879	0.059586
570.254	1.81528
573.628	2.15512
577.003	3.35472
580.378	3.02345
583.753	2.07272
587.128	4.47286
590.502	4.29782
593.877	4.58792
597.252	7.31084
600.627	5.76269
604.002	8.30173
607.376	7.41118
610.751	6.47267
614.126	6.57257
617.501	6.22357
620.876	6.09059
624.25	6.30911
627.625	5.21158
631	6.87659
634.375	6.25587
637.75	5.31789
641.125	4.01325
644.5	5.25819
647.874	4.01233
651.249	3.73164
654.624	4.86134
657.999	3.41052
661.374	3.3185
664.748	1.21808
668.123	3.71874
671.498	2.51334
674.873	1.3297
678.248	0.856064
681.622	1.30026
684.997	1.98753
688.372	1.76344
691.747	0.159714
695.122	1.38357
698.496	0.376694
701.871	0.969788
705.246	0.13736
708.621	0.05368
711.996	0.5914
715.371	0.03006
718.745	0.822083
722.12	0.911682
725.495	0.837036
728.87	1.38071
732.245	0.504822
735.62	1.75964
738.994	2.28857
742.369	2.55692
745.744	3.37845
749.119	4.57141
752.494	4.17822
755.868	4.66412
759.243	7.60229
762.618	10.5121
765.993	13.8127
769.368	19.3193
772.742	24.8435
776.117	31.9314
779.492	39.4848
782.867	49.9356
786.242	61.867
789.617	75.1707
792.991	89.1643
796.366	101.112
799.741	107.982
803.116	111.785
806.491	107.398
809.865	97.9989
813.24	87.9507
816.615	74.8283
819.99	64.9257
823.365	54.0163
826.74	45.461
830.114	39.2222
833.489	33.6992
836.864	28.95
840.239	24.3146
843.614	19.4705
846.989	16.5512
850.363	17.5731
853.738	15.8181
857.113	13.123
860.488	13.3024
863.863	13.2972
867.237	12.6522
870.612	11.7674
873.987	8.93893
877.362	7.12616
880.737	5.74301
884.111	3.72589
887.486	4.50342
890.861	2.34274
894.236	1.13245
897.611	1.7319
900.986	2.10483
904.36	0.809204
907.735	1.20624
911.11	1.00986
914.485	0.925568
917.86	2.23877
921.235	0.64975
924.609	0.074097
927.984	2.2854
931.359	4.62765
934.734	7.08304
938.109	9.24176
941.483	15.467
944.858	22.1943
948.233	28.8513
951.608	37.365
954.983	46.2145
958.357	49.8361
961.732	47.8017
965.107	44.5242
968.482	38.7385
971.857	30.6375
975.232	23.2387
978.606	15.1459
981.981	10.4438
985.356	5.71738
988.731	4.81772
992.106	3.07696
995.481	2.26639
998.855	1.67343
1002.23	0.575775
1005.61	2.06857
1008.98	0.804077
1012.36	0.307037
1015.73	0.918518
1019.1	2.19693
1022.48	2.73343
1025.85	1.46347
1029.23	3.38849
1032.6	4.22086
1035.98	2.79712
1039.35	2.32352
1042.73	4.96796
1046.1	4.61285
1049.48	4.47021
1052.85	3.19336
1056.23	4.17255
1059.6	3.08633
1062.98	2.75079
1066.35	3.3912
1069.73	1.70273
1073.1	1.36288
1076.48	4.22711
1079.85	0.583923
1083.23	0.575684
1086.6	1.71408
1089.97	0.642426
1093.35	0.987762
1096.72	0.074463
1100.1	0.115784
1103.47	0.989227
1106.85	0.802368
1110.22	2.05057
1113.6	1.40775
1116.97	0.073486
1120.35	1.02173
1123.72	0.547302
1127.1	0.089478
1130.47	1.07343
1133.85	0.568604
1137.22	0.897491
1140.6	1.81674
1143.97	0.225128
1147.35	2.16467
1150.72	0.307678
1154.1	1.36908
1157.47	1.00394
1160.85	2.0174
1164.22	2.0693
1167.6	1.05154
1170.97	1.09802
1174.35	2.11502
1177.72	0.196564
1181.1	1.90674
1184.47	1.9212
1187.85	0.555511
1191.22	1.80685
1194.6	3.59555
1197.97	1.1976
1201.34	7.14386
1204.72	2.52228
1208.09	1.80115
1211.47	1.59546
1214.84	1.58746
1218.22	2.76187
1221.59	0.998962
1224.97	2.37424
1228.34	1.83853
1231.72	1.9827
1235.09	1.89221
1238.47	3.58102
1241.84	1.73392
1245.22	1.42392
1248.59	2.36185
1251.97	2.68317
1255.34	1.41733
1258.72	2.73886
1262.09	0.761902
1265.47	0.620453
1268.84	0.580048
1272.21	1.90497
1275.59	1.49637
1278.96	1.20493
1282.34	2.40942
1285.71	1.98331
1289.09	1.76834
1292.46	1.87015
1295.84	0.695648
1299.21	0.026398
