Measurement: Raman, 514 nm, unoriented, Raman Data Processed
Mineral: Pyroxmangite
Rruff sample: X050134
Ideal chemistry: Mn^2+^SiO_3_
Locality: Shidara, Kitashidara-gun, Aichi, Japan
Source: CIT
Raman shift (cm-1)	intensity
152.781	0
157.818	77.311
162.855	70.105
167.893	45.545
172.93	182.812
177.967	356.467
183.005	251.312
188.042	272.285
193.079	162.412
198.116	154.92
203.154	263.688
208.191	364.975
213.228	384.314
218.266	185.408
223.303	27.16
228.34	16.295
233.377	86.295
238.415	44.328
243.452	53.348
248.489	44.809
253.526	165.145
258.564	436.789
263.601	1047.29
268.638	1010.07
273.676	507.824
278.713	362.605
283.75	452.291
288.787	591.865
293.825	826.521
298.862	551.406
303.899	241.609
308.936	298.857
313.974	426.178
319.011	865.953
324.048	971.031
329.086	1211.69
334.123	1260.11
339.16	1109.41
344.197	663.928
349.235	276.08
354.272	319.52
359.309	343.865
364.346	371.561
369.384	111.236
374.421	13.475
379.458	20.104
384.496	8.979
389.533	205.707
394.57	352.584
399.607	587.742
404.645	496.799
409.682	496.785
414.719	557.473
419.757	767.73
424.794	700.713
429.831	320.473
434.868	3.283
439.906	150.055
444.943	244.914
449.98	538.178
455.017	496.189
460.055	328.254
465.092	160.518
470.129	105.189
475.167	70.701
480.204	4.125
485.241	88.367
490.278	14.248
495.316	285.318
500.353	109.43
505.39	119.811
510.427	260.967
515.465	387.266
520.502	342.359
525.539	335.988
530.577	143.912
535.614	235.248
540.651	70.689
545.688	117.922
550.726	235.949
555.763	384.697
560.8	437.635
565.838	358.318
570.875	495.332
575.912	742.119
580.949	439.283
585.987	284.986
591.024	146.934
596.061	76.531
601.099	1.338
606.136	19.754
611.173	55.445
616.21	47.809
621.248	109.318
626.285	36.877
631.322	226.055
636.359	505.631
641.397	1559.99
646.434	3455.73
651.471	6085.45
656.508	9566.29
661.546	14205.4
666.583	16722
671.62	13411.6
676.658	6479.58
681.695	2505.11
686.732	1332.04
691.769	1411.45
696.807	1945.41
701.844	1810.89
706.881	851.471
711.919	236.57
716.956	78.244
721.993	97.486
727.031	91.131
732.068	81.461
737.105	211.545
742.142	24.365
747.18	22.387
752.217	16.301
757.254	109.457
762.291	104.596
767.329	180.1
772.366	36.316
777.403	133.783
782.44	190.088
787.478	239.926
792.515	132.652
797.552	151.07
802.59	169.662
807.627	134.572
812.664	297.088
817.701	115.76
822.739	136.553
827.776	228.297
832.813	179.352
837.851	0.41
842.888	97.678
847.925	235.172
852.962	115.125
858	282.502
863.037	166.838
868.074	104.059
873.112	125.926
878.149	214.947
883.186	253.902
888.223	310.395
893.261	391.871
898.298	440.986
903.335	462.291
908.372	315.041
913.41	13.162
918.447	122.945
923.484	3.227
928.521	100.875
933.559	122.676
938.596	22.348
943.633	153.896
948.671	65.266
953.708	299.361
958.745	1223.15
963.782	3581.46
968.82	7147.31
973.857	9047.59
978.894	7752.7
983.932	7046.75
988.969	8641.93
994.006	11692.5
999.043	13002.2
1004.08	10533
1009.12	6762.72
1014.15	4552.48
1019.19	3597.2
1024.23	2461.42
1029.27	1643.82
1034.3	1056.96
1039.34	162.002
1044.38	114.217
1049.42	203.67
1054.45	156.469
1059.49	46.059
1064.53	66.346
1069.57	62.262
1074.6	223.457
1079.64	201.863
1084.68	339.762
1089.71	422.23
1094.75	331.686
1099.79	355.273
1104.83	470.326
1109.86	303.955
1114.9	231.031
1119.94	146.602
1124.97	304.615
1130.01	1.512
1135.05	184.42
1140.09	31.895
1145.12	176.982
1150.16	297.129
1155.2	305.803
1160.24	94.807
1165.27	147.672
1170.31	213.057
1175.35	152.611
1180.38	360.582
1185.42	203.283
1190.46	208.166
1195.5	114.043
1200.53	209.4
1205.57	181.498
1210.61	196.465
1215.65	235.045
1220.68	247.596
1225.72	140.277
1230.76	216.867
1235.8	36.141
1240.83	75.861
1245.87	110.449
1250.91	387.566
1255.94	23.357
1260.98	72.727
1266.02	2.158
1271.06	140.615
1276.09	144.629
1281.13	49.391
1286.17	131.312
1291.2	84.414
1296.24	99.451
1301.28	122.453
1306.32	178.223
1311.36	171.158
1316.39	230.811
1321.43	302.453
1326.47	227.807
1331.5	250.35
1336.54	268.672
1341.58	580.799
1346.62	250.217
1351.65	246.066
1356.69	75.271
1361.73	194.635
1366.77	238.766
1371.8	438.154
1376.84	342.912
1381.88	286.699
1386.91	282.99
1391.95	195.588
1396.99	6.609
1402.03	305.48
1407.06	283.523
1412.1	153.432
1417.14	66.357
1422.17	152.18
1427.21	362.562
1432.25	63.121
1437.29	46.807
1442.32	19.709
1447.36	51.523
1452.4	148.43
1457.44	236.369
1462.47	336.523
1467.51	369.695
1472.55	141.482
1477.59	342.25
1482.62	131.676
1487.66	219.83
1492.7	251.379
1497.73	75.287
