Measurement: Raman, 780 nm, unoriented, Raman Data Processed
Mineral: Raguinite
Rruff sample: R130617
Ideal chemistry: Tl^1+^Fe^3+^S^2-^_2_
Locality: Allchar, Roszdan, Republic of Macedonia
Source: Mark N. Feinglos
Description: Black granular crystals, associated with dolomite, realgar, and lorandite.
Raman shift (cm-1)	intensity
93.8499	0
97.2247	0.163574
100.6	1.49121
103.974	1.36267
107.349	6.01617
110.724	7.83124
114.099	11.5591
117.474	6.35632
120.848	0.677856
124.223	0.513123
127.598	2.34467
130.973	4.43304
134.348	7.11737
137.722	7.698
141.097	30.864
144.472	16.0429
147.847	5.55121
151.222	7.5022
154.597	7.46423
157.971	1.58856
161.346	26.6393
164.721	56.5554
168.096	52.7278
171.471	65.7675
174.845	71.7661
178.22	115.245
181.595	221.997
184.97	162.805
188.345	147.357
191.72	160.028
195.094	67.2788
198.469	43.3293
201.844	52.0951
205.219	55.1793
208.594	86.4908
211.969	147.267
215.343	240.945
218.718	295.008
222.093	175.917
225.468	108.697
228.843	112.666
232.217	96.0478
235.592	57.9802
238.967	14.8604
242.342	1.9693
245.717	4.9408
249.091	5.17062
252.466	0.276764
255.841	7.38037
259.216	17.2624
262.591	34.2091
265.966	57.8312
269.34	90.4739
272.715	126.651
276.09	146.163
279.465	159.299
282.84	144.004
286.214	119.338
289.589	89.9096
292.964	63.0419
296.339	41.2926
299.714	26.8615
303.089	14.1622
306.463	5.89178
309.838	1.24689
313.213	0.673218
316.588	2.18835
319.963	11.6519
323.337	26.5411
326.712	40.3206
330.087	54.3768
333.462	79.1538
336.837	125.885
340.212	167.217
343.586	164.639
346.961	153.718
350.336	212.259
353.711	252.558
357.086	173.589
360.46	126.839
363.835	87.7511
367.21	70.3867
370.585	65.0592
373.96	62.5829
377.334	62.4849
380.709	63.5465
384.084	62.2811
387.459	63.609
390.834	63.6592
394.209	61.811
397.583	53.0392
400.958	46.6094
404.333	34.346
407.708	25.4685
411.083	16.1025
414.457	8.55017
417.832	3.62265
421.207	0.894226
424.582	0.636841
427.957	1.64328
431.332	1.50403
434.706	0.138641
438.081	1.45688
441.456	0.692169
444.831	0.671448
448.206	2.17941
451.58	3.46631
454.955	4.64499
458.33	7.93872
461.705	9.63901
465.08	11.5837
468.455	12.2701
471.829	14.725
475.204	15.058
478.579	17.1
481.954	16.1071
485.329	15.3325
488.704	13.3359
492.078	10.8165
495.453	7.71979
498.828	7.27048
502.203	5.17499
505.577	3.35577
508.952	1.30042
512.327	2.9527
515.702	0.91153
519.077	1.4028
522.452	0.518219
525.826	0.215485
529.201	0.702484
532.576	0.054169
535.951	0.718933
539.326	3.26352
542.701	0.790436
546.075	1.55573
549.45	2.60071
552.825	4.10229
556.2	2.46939
559.575	3.63214
562.949	6.08548
566.324	7.38547
569.699	9.52875
573.074	11.3654
576.449	15.2735
579.823	16.0388
583.198	21.147
586.573	22.2605
589.948	24.2825
593.323	22.2897
596.698	21.8188
600.072	18.9424
603.447	16.4849
606.822	11.5178
610.197	9.98575
613.572	7.5192
616.947	4.76294
620.321	2.77292
623.696	1.08823
627.071	4.40225
630.446	2.9371
633.821	1.67401
637.195	3.08524
640.57	3.55753
643.945	1.38974
647.32	3.0968
650.695	2.30469
654.069	2.63449
657.444	0.759888
660.819	1.08527
664.194	1.86932
667.569	1.18335
670.944	0.694672
674.318	1.23001
677.693	1.16876
681.068	2.159
684.443	1.20517
687.818	1.86621
691.192	1.67895
694.567	0.174835
697.942	0.483978
701.317	1.92978
704.692	0.618652
708.067	0.533142
711.441	2.66071
714.816	1.20123
718.191	0.395569
721.566	0.715729
724.941	0.781525
728.316	1.34436
731.69	2.13144
735.065	0.287628
738.44	1.60794
741.815	1.29373
745.19	2.0517
748.564	0.990875
751.939	0.704926
755.314	0.37085
758.689	2.5672
762.064	1.93964
765.438	0.047028
768.813	2.2724
772.188	1.67041
775.563	0.094757
778.938	0.279083
782.313	0.68689
785.687	1.36465
789.062	1.58075
792.437	5.535
795.812	2.22543
799.187	1.56909
802.562	1.48306
805.936	4.9343
809.311	2.92047
812.686	3.45264
816.061	4.2431
819.436	1.17151
822.81	3.89194
826.185	6.03815
829.56	3.73434
832.935	4.38364
836.31	6.06064
839.684	5.33859
843.059	3.89871
846.434	3.6116
849.809	2.43976
853.184	4.11929
856.558	2.57779
859.933	4.81574
863.308	3.05963
866.683	2.38263
870.058	1.26239
873.433	3.11777
876.807	1.96088
880.182	3.77475
883.557	1.71481
886.932	8.54392
890.307	2.61054
893.682	0.076111
897.056	2.22458
900.431	1.83008
903.806	3.72421
907.181	2.99048
910.556	0.611969
913.93	1.39835
917.305	0.083649
920.68	1.8858
924.055	1.09476
927.43	3.1261
930.804	0.615692
934.179	1.85437
937.554	1.78366
940.929	0.950317
944.304	2.12347
947.679	0.775574
951.053	0.101593
954.428	3.42065
957.803	1.95288
961.178	2.99182
964.553	0.047668
967.928	1.54245
971.302	0.650391
974.677	0.168457
978.052	0.464661
981.427	0.602722
984.802	1.77826
988.176	2.9408
991.551	0.890625
994.926	2.27069
998.301	8.50366
1001.68	4.42828
1005.05	2.18915
1008.42	2.44135
1011.8	4.71576
1015.17	2.25256
1018.55	1.66858
1021.92	2.91638
1025.3	5.03876
1028.67	2.96912
1032.05	3.29645
1035.42	3.28619
1038.8	1.50848
1042.17	3.75812
1045.55	1.70575
1048.92	2.88812
1052.3	3.67645
1055.67	4.0354
1059.05	2.54828
1062.42	6.33948
1065.8	1.24408
1069.17	3.68213
1072.55	2.19611
1075.92	1.57477
1079.3	2.66602
1082.67	2.16412
1086.05	3.13855
1089.42	1.35815
1092.8	2.39551
1096.17	1.16718
1099.55	2.84613
1102.92	2.19196
1106.3	0.302795
1109.67	1.71069
1113.05	2.94635
1116.42	1.40015
1119.79	0.072571
1123.17	3.50952
1126.54	2.08337
1129.92	0.16571
1133.29	2.79517
1136.67	1.43024
1140.04	0.287048
1143.42	2.98999
1146.79	4.62329
1150.17	0.577271
1153.54	1.36939
1156.92	3.1554
1160.29	5.38061
1163.67	5.10742
1167.04	4.89307
1170.42	2.58588
1173.79	4.65625
1177.17	3.10663
1180.54	4.25977
1183.92	4.38373
1187.29	5.23975
1190.66	0.287231
1194.04	3.04785
1197.41	4.48566
1200.79	4.83612
1204.16	4.54352
1207.54	2.23523
1210.91	3.17535
1214.29	1.60022
1217.66	1.87097
1221.04	1.72662
1224.41	2.76294
1227.79	0.266174
1231.16	2.46948
1234.54	3.49127
1237.91	1.92773
1241.29	2.70416
1244.66	3.23004
1248.04	1.11188
1251.41	1.43909
1254.79	0.420654
1258.16	4.08331
1261.54	4.76202
1264.91	2.15039
1268.29	1.90558
1271.66	2.75592
1275.04	1.31458
1278.41	1.15595
1281.79	0.399292
