Measurement: Raman, 532 nm, unoriented, Raman Data Processed
Mineral: Raguinite
Rruff sample: R130617
Ideal chemistry: Tl^1+^Fe^3+^S^2-^_2_
Locality: Allchar, Roszdan, Republic of Macedonia
Source: Mark N. Feinglos
Description: Black granular crystals, associated with dolomite, realgar, and lorandite.
Raman shift (cm-1)	intensity
124.778	0
128.152	5.14771
131.527	31.1182
134.902	39.699
138.277	61.5284
141.652	54.4062
145.026	39.8213
148.401	41.3972
151.776	50.6969
155.151	38.147
158.526	23.398
161.901	30.9933
165.275	33.8306
168.65	44.163
172.025	55.1844
175.4	48.1743
178.775	63.9996
182.149	79.7708
185.524	91.1192
188.899	75.0264
192.274	58.1661
195.649	54.4083
199.024	52.7638
202.398	47.4124
205.773	33.3926
209.148	45.2256
212.523	67.0653
215.898	96.5037
219.273	130.126
222.647	151.142
226.022	234.151
229.397	295.487
232.772	222.356
236.147	122.227
239.521	35.1425
242.896	5.05078
246.271	6.03418
249.646	5.42035
253.021	5.5603
256.396	0.12854
259.77	0.664978
263.145	8.15888
266.52	24.3962
269.895	39.6029
273.27	34.5707
276.644	7.29004
280.019	2.20679
283.394	8.11621
286.769	10.0618
290.144	12.4821
293.519	14.9943
296.893	19.3898
300.268	32.7979
303.643	39.9089
307.018	48.2963
310.392	53.4805
313.767	59.4227
317.142	66.4862
320.517	81.5494
323.892	106.922
327.267	144.024
330.641	174.979
334.016	193.178
337.391	208.4
340.766	222.776
344.141	219.51
347.515	190.766
350.89	150.264
354.265	125.688
357.64	117.499
361.015	117.295
364.39	97.7407
367.764	77.3257
371.139	60.7927
374.514	44.4834
377.889	33.5613
381.264	30.3403
384.639	21.0602
388.013	14.1985
391.388	6.5069
394.763	4.3446
398.138	9.7168
401.513	0.831055
404.887	1.47388
408.262	0.141174
411.637	0.651489
415.012	0.716858
418.387	0.653137
421.762	1.82837
425.136	4.66596
428.511	3.61005
431.886	2.06335
435.261	1.27826
438.636	0.808899
442.01	3.84546
445.385	6.9834
448.76	7.62598
452.135	7.89654
455.51	12.5296
458.885	10.7622
462.259	13.0981
465.634	12.3931
469.009	9.75482
472.384	13.6333
475.759	14.9368
479.133	13.7266
482.508	17.4144
485.883	13.2797
489.258	15.7753
492.633	13.5747
496.007	9.32947
499.382	7.90057
502.757	6.84601
506.132	6.05243
509.507	5.19049
512.882	2.99457
516.256	2.11627
519.631	2.1087
523.006	2.20337
526.381	1.6814
529.756	1.70508
533.13	2.77795
536.505	1.34387
539.88	3.18439
543.255	2.22821
546.63	2.73554
550.005	1.75903
553.379	3.04541
556.754	1.19562
560.129	3.13025
563.504	0.556702
566.879	1.45074
570.254	0.039307
573.628	0.381348
577.003	2.28241
580.378	7.6767
583.753	1.04071
587.128	0.426941
590.502	0.308838
593.877	0.757507
597.252	3.74048
600.627	0.105835
604.002	1.00708
607.376	2.13007
610.751	0.580933
614.126	0.072021
617.501	0.049255
620.876	1.37396
624.25	2.16949
627.625	0.588745
631	0.841187
634.375	4.54718
637.75	0.446777
641.125	2.867
644.5	3.92658
647.874	2.87378
651.249	4.79028
654.624	3.35797
657.999	4.65271
661.374	3.30286
664.748	3.95422
668.123	3.57227
671.498	3.46735
674.873	3.03571
678.248	1.95929
681.622	4.46185
684.997	3.6485
688.372	2.87915
691.747	3.74719
695.122	5.09784
698.496	3.9292
701.871	1.91107
705.246	0.639771
708.621	4.04175
711.996	1.29425
715.371	1.25403
718.745	0.683289
722.12	0.874634
725.495	0.65979
728.87	1.02594
732.245	0.481384
735.62	1.25061
738.994	2.13208
742.369	1.99353
745.744	2.49737
749.119	1.51984
752.494	0.464539
755.868	1.64209
759.243	0.232483
762.618	1.18372
765.993	0.998047
769.368	2.90662
772.742	2.23065
776.117	3.54138
779.492	4.74854
782.867	4.95258
786.242	5.29187
789.617	6.6026
792.991	7.07434
796.366	9.04376
799.741	8.45673
803.116	8.03418
806.491	10.1429
809.865	10.4851
813.24	11.7047
816.615	13.9777
819.99	16.3817
823.365	16.4805
826.74	18.3457
830.114	18.0314
833.489	18.4646
836.864	21.114
840.239	20.6311
843.614	20.2859
846.989	21.5093
850.363	19.4038
853.738	20.1941
857.113	20.3008
860.488	19.4477
863.863	22.1624
867.237	19.5341
870.612	18.3728
873.987	14.1394
877.362	13.4593
880.737	9.67071
884.111	12.9569
887.486	9.84045
890.861	6.91321
894.236	9.50012
897.611	8.85034
900.986	3.80682
904.36	3.52124
907.735	0.72998
911.11	0.104614
914.485	1.39654
917.86	0.037109
921.235	1.33154
924.609	0.135986
927.984	1.38532
931.359	1.73706
934.734	0.158997
938.109	0.88501
941.483	3.53754
944.858	1.91998
948.233	2.36096
951.608	2.10992
954.983	0.976135
958.357	5.07428
961.732	1.88892
965.107	8.55408
968.482	0.089783
971.857	1.90961
975.232	1.21796
978.606	4.22864
981.981	0.893494
985.356	0.790466
988.731	3.56305
992.106	1.65552
995.481	2.12488
998.855	2.11231
1002.23	2.26996
1005.61	3.29559
1008.98	1.83618
1012.36	6.26276
1015.73	4.91058
1019.1	4.33673
1022.48	6.39093
1025.85	7.01154
1029.23	8.41455
1032.6	7.02496
1035.98	4.51562
1039.35	6.47363
1042.73	7.83636
1046.1	5.92493
1049.48	6.6507
1052.85	8.0954
1056.23	5.51648
1059.6	7.32892
1062.98	5.7749
1066.35	3.49774
1069.73	6.60962
1073.1	0.734802
1076.48	3.88263
1079.85	2.75085
1083.23	2.02808
1086.6	1.68585
1089.97	2.92029
1093.35	1.39026
1096.72	0.789978
1100.1	3.25696
1103.47	1.65637
1106.85	1.11407
1110.22	0.120789
1113.6	0.302612
1116.97	2.44354
1120.35	2.19751
1123.72	2.92993
1127.1	3.21924
1130.47	0.837769
1133.85	0.571228
1137.22	3.18256
1140.6	8.30127
1143.97	2.19434
1147.35	3.31671
1150.72	0.836487
1154.1	3.01306
1157.47	4.27911
1160.85	4.39917
1164.22	4.87201
1167.6	3.74762
1170.97	3.24768
1174.35	4.14801
1177.72	3.54407
1181.1	0.932129
1184.47	0.673096
1187.85	0.629395
1191.22	4.85272
1194.6	3.69293
1197.97	3.89356
1201.34	0.026917
1204.72	1.6991
1208.09	3.72827
1211.47	1.72632
1214.84	0.954468
1218.22	0.729492
1221.59	1.97412
1224.97	1.39978
1228.34	0.80249
1231.72	3.06067
1235.09	0.791992
1238.47	1.97144
1241.84	1.37634
1245.22	5.3465
1248.59	4.22205
1251.97	5.05078
1255.34	7.10126
1258.72	5.4563
1262.09	5.99158
1265.47	3.65271
1268.84	3.81323
1272.21	2.14661
1275.59	2.18518
1278.96	2.48474
1282.34	3.6217
1285.71	0.444092
1289.09	6.43713
1292.46	4.65338
1295.84	0.511841
1299.21	0.025391
