Measurement: Raman, 532 nm, unoriented, Raman Data Processed
Mineral: Raydemarkite
Rruff sample: R210023
Ideal chemistry: Mo^6+^O_3_H_2_O
Locality: Cookes Peak, Cookes Range, Luna County, New Mexico, USA
Source: Ron Gibbs
Description: Sprays of while acicular crystals, associated with blueish scorodite
Measured chemistry: MoO_3_Â·H_2_O ;    Based on 4 O atoms. H2O added as the ideal value.
Raman shift (cm-1)	intensity
88.1367	0
91.5115	52.3021
94.8863	118.06
98.2612	69.4359
101.636	24.6534
105.011	23.4523
108.386	144.276
111.76	361.668
115.135	833.16
118.51	2073.85
121.885	7241.76
125.26	15585.1
128.635	3348.65
132.009	2957.8
135.384	5124.1
138.759	6840.65
142.134	3812.01
145.509	1745.91
148.883	1148.58
152.258	1213.93
155.633	1828.31
159.008	2893.7
162.383	3841.63
165.757	3689.2
169.132	4742.97
172.507	8560.06
175.882	3751.96
179.257	886.93
182.632	237.918
186.006	148.297
189.381	302.57
192.756	659.847
196.131	1327.86
199.506	2249.78
202.881	2879.78
206.255	2981.4
209.63	3276.99
213.005	4061.57
216.38	4854.82
219.755	4375.39
223.129	2967.71
226.504	1956.33
229.879	1551.26
233.254	1610.04
236.629	1993.57
240.004	2871.49
243.378	4636.06
246.753	7202.21
250.128	6689.78
253.503	2969.79
256.878	1155.77
260.252	459.586
263.627	153.357
267.002	10.9282
270.377	48.9519
273.752	79.9563
277.127	78.8897
280.501	61.3561
283.876	33.6157
287.251	4.41095
290.626	61.0997
294.001	108.42
297.375	159.287
300.75	201.093
304.125	217.832
307.5	215.882
310.875	211.295
314.25	211.038
317.624	213.466
320.999	225.263
324.374	243.969
327.749	258.691
331.124	237.074
334.498	195.921
337.873	139.175
341.248	83.3993
344.623	47.0149
347.998	34.4481
351.373	27.3578
354.747	27.6837
358.122	41.8406
361.497	47.9259
364.872	57.8473
368.247	71.4178
371.621	92.3178
374.996	114.544
378.371	152.598
381.746	214.271
385.121	314.312
388.495	473.426
391.87	722.679
395.245	1164.56
398.62	1922.58
401.995	2500.59
405.37	1701.3
408.744	789.935
412.119	391.67
415.494	214.981
418.869	118.706
422.244	65.068
425.618	28.639
428.993	9.90814
432.368	0.599701
435.743	6.67255
439.118	7.75583
442.493	4.89417
445.867	4.46622
449.242	11.4686
452.617	25.389
455.992	57.8436
459.367	101.305
462.741	173.787
466.116	285.779
469.491	447.35
472.866	684.067
476.241	957.812
479.615	1179.05
482.99	1205.01
486.365	1073.91
489.74	889.512
493.115	726.562
496.49	594.569
499.864	487.403
503.239	388.688
506.614	299.84
509.989	223.857
513.364	159.995
516.739	115.936
520.113	86.6917
523.488	68.3566
526.863	50.9209
530.238	37.6052
533.613	26.6554
536.987	21.2023
540.362	12.2383
543.737	5.23245
547.112	8.45294
550.487	0.720245
553.861	0.516144
557.236	1.71384
560.611	2.18701
563.986	4.7103
567.361	7.48675
570.736	8.41302
574.11	9.34485
577.485	9.3898
580.86	7.59656
584.235	4.75922
587.61	19.4598
590.985	45.006
594.359	65.3176
597.734	102.231
601.109	141.692
604.484	177.796
607.859	216.335
611.233	242.937
614.608	262.161
617.983	262.625
621.358	248.607
624.733	224.187
628.107	190.49
631.482	166.1
634.857	147.56
638.232	133.398
641.607	130.153
644.982	132.374
648.356	150.121
651.731	184.981
655.106	224.895
658.481	285.377
661.856	363.104
665.231	467.663
668.605	625.017
671.98	823.342
675.355	1133.92
678.73	1646.51
682.105	2497.93
685.479	3810.73
688.854	5656.48
692.229	7154.58
695.604	6308.38
698.979	3962.8
702.354	2245.16
705.728	1315.11
709.103	806.173
712.478	510.794
715.853	333.289
719.227	217.308
722.602	141.912
725.977	89.3949
729.352	48.761
732.727	23.5695
736.102	9.44589
739.476	0.864075
742.851	11.1387
746.226	13.8401
749.601	9.56354
752.976	11.2188
756.351	2.7785
759.725	1.20917
763.1	4.21942
766.475	6.26485
769.85	7.10591
773.225	10.5846
776.599	12.9185
779.974	11.6884
783.349	17.4489
786.724	18.7641
790.099	19.6099
793.473	18.5606
796.848	25.6888
800.223	24.4351
803.598	25.2656
806.973	27.93
810.348	27.2264
813.722	22.8344
817.097	25.2703
820.472	23.0706
823.847	23.603
827.222	22.8937
830.597	19.7602
833.971	18.6494
837.346	18.7664
840.721	14.6517
844.096	12.7014
847.471	8.9595
850.846	6.82089
854.22	1.28024
857.595	0.429886
860.97	1.67505
864.345	4.93698
867.72	2.9987
871.094	3.19754
874.469	4.37492
877.844	1.8438
881.219	4.27032
884.594	14.9172
887.968	26.7055
891.343	44.883
894.718	53.7832
898.093	69.7069
901.468	100.168
904.842	164.243
908.217	256.147
911.592	442.585
914.967	747.842
918.342	1258.23
921.717	1949.86
925.091	1848.35
928.466	896.587
931.841	419.835
935.216	252.147
938.591	201.075
941.966	199.229
945.34	236.228
948.715	318.315
952.09	481.25
955.465	865.799
958.84	1961.68
962.214	4290.87
965.589	12274
968.964	38991
972.339	9557.16
975.714	2393.73
979.088	1016.13
982.463	503.119
985.838	269.246
989.213	142.651
992.588	84.3864
995.963	44.4811
999.337	26.0971
1002.71	16.2157
1006.09	1.84717
1009.46	0.254379
1012.84	0.300293
1016.21	4.79468
1019.59	6.72766
1022.96	4.57152
1026.34	2.15915
1029.71	0.183731
1033.09	0.098557
1036.46	3.21989
1039.84	1.61617
1043.21	5.93285
1046.59	2.97024
1049.96	5.44499
1053.33	9.0356
1056.71	11.9008
1060.08	11.4489
1063.46	11.101
1066.83	15.2794
1070.21	15.9768
1073.58	16.2402
1076.96	18.8423
1080.33	13.3419
1083.71	9.71904
1087.08	11.2879
1090.46	11.6001
1093.83	10.9079
1097.21	11.731
1100.58	10.5162
1103.96	12.3293
1107.33	6.44124
1110.71	7.43175
1114.08	9.17859
1117.46	7.08258
1120.83	8.24481
1124.21	5.59958
1127.58	1.28793
1130.95	4.23402
1134.33	4.33899
1137.7	1.69212
1141.08	1.90655
1144.45	2.59889
1147.83	2.70746
1151.2	0.90303
1154.58	1.17191
1157.95	4.007
1161.33	5.03844
1164.7	9.05837
1168.08	7.96388
1171.45	13.4189
1174.83	17.3739
1178.2	15.8709
1181.58	15.3907
1184.95	15.8963
1188.33	15.1453
1191.7	10.1352
1195.08	9.69777
1198.45	9.84384
1201.83	5.8949
1205.2	7.60905
1208.58	4.31149
1211.95	4.71834
1215.33	4.8793
1218.7	6.12209
1222.08	5.15022
1225.45	1.17708
1228.83	6.75427
1232.2	5.03423
1235.58	4.52557
1238.95	1.65671
1242.32	1.8015
1245.7	4.91943
1249.07	4.01575
1252.45	0.594467
1255.82	0.117355
1259.2	1.24506
1262.57	2.2128
1265.95	2.04094
1269.32	2.10951
1272.7	4.19406
1276.07	1.61176
1279.45	3.65491
1282.82	4.2392
1286.2	2.55864
1289.57	0.427582
1292.95	5.46664
1296.32	1.40694
1299.7	0.406342
