Measurement: Raman, 780 nm, unoriented, Raman Data Processed
Mineral: Raydemarkite
Rruff sample: R210023
Ideal chemistry: Mo^6+^O_3_H_2_O
Locality: Cookes Peak, Cookes Range, Luna County, New Mexico, USA
Source: Ron Gibbs
Description: Sprays of while acicular crystals, associated with blueish scorodite
Measured chemistry: MoO_3_Â·H_2_O ;    Based on 4 O atoms. H2O added as the ideal value.
Raman shift (cm-1)	intensity
87.582	0
90.9569	86.9169
94.3317	161.512
97.7065	68.4007
101.081	7.69708
104.456	17.5167
107.831	4.55969
111.206	203.688
114.581	831.615
117.955	2611.93
121.33	8445.25
124.705	5402.77
128.08	1574.11
131.455	2188.8
134.829	3802.93
138.204	3596.65
141.579	1668.56
144.954	815.643
148.329	676.35
151.704	977.802
155.078	1621.17
158.453	2521.23
161.828	3043.17
165.203	3282.97
168.578	5432.96
171.952	6395.97
175.327	1896.64
178.702	526.862
182.077	199.358
185.452	195.637
188.827	369.853
192.201	768.163
195.576	1387.78
198.951	2099.11
202.326	2323.39
205.701	2208.46
209.076	2367.55
212.45	2835.57
215.825	3051.18
219.2	2419.34
222.575	1546.78
225.95	1045.16
229.324	868.253
232.699	928.027
236.074	1257.89
239.449	2023.22
242.824	3414.82
246.198	4643.45
249.573	3211.74
252.948	1296.96
256.323	505.185
259.698	189.362
263.073	47.6991
266.447	12.8539
269.822	46.2841
273.197	56.3471
276.572	46.4718
279.947	40.0012
283.322	16.1375
286.696	6.25555
290.071	39.1302
293.446	67.5803
296.821	99.0227
300.196	119.549
303.57	128.814
306.945	131.234
310.32	132.753
313.695	137.396
317.07	139.336
320.445	147.814
323.819	152.687
327.194	153.18
330.569	136.447
333.944	109.052
337.319	76.4972
340.693	50.3745
344.068	29.4866
347.443	21.5739
350.818	25.4662
354.193	26.2012
357.567	28.3402
360.942	32.6703
364.317	42.8833
367.692	50.2129
371.067	63.5424
374.442	82.8542
377.816	114.445
381.191	159.428
384.566	229.821
387.941	361.485
391.316	610.182
394.69	1095.39
398.065	1786.73
401.44	1933.31
404.815	1115.43
408.19	543.255
411.565	283.408
414.939	166.265
418.314	96.0008
421.689	59.0204
425.064	31.6962
428.439	15.8773
431.813	9.51976
435.188	0.476669
438.563	4.42366
441.938	5.38342
445.313	3.94154
448.688	2.2988
452.062	3.04204
455.437	12.3066
458.812	31.0738
462.187	55.3584
465.562	96.1281
468.937	151.802
472.311	230.712
475.686	317.946
479.061	375.645
482.436	367.49
485.81	318.74
489.185	264.579
492.56	220.707
495.935	181.145
499.31	152.465
502.685	117.407
506.059	83.7537
509.434	58.2463
512.809	41.3453
516.184	30.3352
519.559	20.4513
522.933	14.2555
526.308	9.14601
529.683	8.7029
533.058	5.4716
536.433	6.25281
539.808	1.24686
543.182	1.87767
546.557	2.28969
549.932	1.40768
553.307	1.62766
556.682	2.18265
560.057	1.82367
563.431	1.10281
566.806	3.07808
570.181	4.06477
573.556	8.33192
576.931	6.05009
580.305	8.52246
583.68	4.88724
587.055	0.733994
590.43	14.3282
593.805	26.8072
597.18	46.5518
600.554	61.6681
603.929	74.7343
607.304	100.613
610.679	113.266
614.054	120.463
617.428	126.624
620.803	120.608
624.178	106.903
627.553	97.8664
630.928	89.1002
634.303	81.5076
637.677	73.4935
641.052	74.069
644.427	78.6577
647.802	90.2472
651.177	107.376
654.552	133.189
657.926	167.118
661.301	214.719
664.676	279.356
668.051	352.341
671.426	480.344
674.8	658.383
678.175	963.689
681.55	1467.06
684.925	2303.12
688.3	3407.08
691.674	4050.8
695.049	3264.19
698.424	1980.32
701.799	1124.32
705.174	668.213
708.548	416.209
711.923	266.332
715.298	172.643
718.673	114.436
722.048	76.4366
725.423	47.1451
728.797	25.5999
732.172	13.5888
735.547	2.80461
738.922	2.60164
742.297	2.11818
745.672	5.59164
749.046	6.40161
752.421	5.39053
755.796	3.78558
759.171	2.21228
762.546	2.76849
765.92	2.73198
769.295	4.99839
772.67	4.30857
776.045	7.86838
779.42	7.82926
782.795	8.69791
786.169	9.30989
789.544	10.2491
792.919	12.001
796.294	9.0524
799.669	12.7077
803.043	11.6373
806.418	14.8745
809.793	14.6209
813.168	14.0014
816.543	16.7896
819.918	16.3467
823.292	19.1881
826.667	14.9353
830.042	14.0584
833.417	15.1655
836.792	14.9023
840.166	12.0872
843.541	9.78228
846.916	7.13583
850.291	5.73813
853.666	3.85923
857.04	4.73386
860.415	1.18238
863.79	0.171455
867.165	4.13751
870.54	1.5576
873.915	1.75613
877.289	0.191383
880.664	3.07694
884.039	7.74236
887.414	13.2685
890.789	19.6499
894.163	24.5485
897.538	36.9864
900.913	54.3453
904.288	86.8216
907.663	141.886
911.038	243.042
914.412	443.443
917.787	839.994
921.162	1347.65
924.537	1095.35
927.912	529.13
931.287	266.634
934.661	164.891
938.036	128.547
941.411	116.657
944.786	131.027
948.161	162.901
951.535	235.11
954.91	423.603
958.285	830.294
961.66	2092.29
965.035	7151.93
968.409	12407.6
971.784	2324.82
975.159	691.978
978.534	320.03
981.909	179.22
985.284	90.0429
988.658	42.1097
992.033	20.6594
995.408	10.7982
998.783	6.0153
1002.16	2.77113
1005.53	0.250092
1008.91	2.51527
1012.28	1.83929
1015.66	2.30215
1019.03	1.34829
1022.41	1.17969
1025.78	0.34819
1029.16	0.233185
1032.53	0.233406
1035.91	1.27261
1039.28	2.98916
1042.66	3.39048
1046.03	4.27991
1049.4	5.28995
1052.78	5.37989
1056.15	6.16779
1059.53	6.98142
1062.9	7.80878
1066.28	7.45425
1069.65	8.27745
1073.03	8.41933
1076.4	8.14493
1079.78	8.5956
1083.15	7.07992
1086.53	5.93121
1089.9	6.35136
1093.28	6.2749
1096.65	5.78924
1100.03	7.3204
1103.4	4.57179
1106.78	4.35915
1110.15	6.01195
1113.53	3.31551
1116.9	3.6997
1120.28	4.03126
1123.65	2.88567
1127.03	3.50874
1130.4	1.09021
1133.78	2.45922
1137.15	1.46656
1140.53	0.090946
1143.9	0.075005
1147.28	0.281715
1150.65	0.930862
1154.03	0.508247
1157.4	0.995777
1160.77	2.20462
1164.15	1.95293
1167.52	2.45994
1170.9	2.35475
1174.27	3.44437
1177.65	4.33942
1181.02	3.97649
1184.4	4.40959
1187.77	4.30098
1191.15	3.33394
1194.52	4.41087
1197.9	4.09827
1201.27	3.74197
1204.65	3.40211
1208.02	2.80035
1211.4	3.18438
1214.77	3.87176
1218.15	3.99772
1221.52	2.83549
1224.9	0.955605
1228.27	2.31036
1231.64	1.03289
1235.02	2.87023
1238.39	0.877853
1241.77	1.39972
1245.14	1.63832
1248.52	2.8018
1251.89	2.94955
1255.27	0.469368
1258.64	1.82177
1262.02	2.15544
1265.39	1.48538
1268.77	1.74041
1272.14	2.76649
1275.52	1.84663
1278.89	2.56838
1282.27	0
