Measurement: Raman, 532 nm, unoriented, Raman Data Processed
Mineral: Rickardite
Rruff sample: R140500
Ideal chemistry: Cu_2.64-3.00_Te_2_
Locality: 600' Level, Good Hope mine, Vulcan, Vulcan District, Gunnison County, Colorado, USA
Source: Rock Currier
Description: Rich, dark purple metallic plates with silvery gray bright metallic tellurium and very sparse tiny specs of metallic blue weissite on gray matrix.
Raman shift (cm-1)	intensity
88.1367	0
91.5115	61.4885
94.8863	12.9622
98.2612	0.589783
101.636	95.4742
105.011	303.019
108.386	709.043
111.76	1500.36
115.135	3032.94
118.51	5145.34
121.885	5588.01
125.26	3737.22
128.635	2481.64
132.009	1895.36
135.384	2052.43
138.759	2891.31
142.134	2570.46
145.509	1031.18
148.883	582.232
152.258	414.997
155.633	336.644
159.008	286.86
162.383	254.455
165.757	230.363
169.132	205.482
172.507	181.551
175.882	159.592
179.257	140.191
182.632	111.367
186.006	78.9794
189.381	45.3867
192.756	15.1164
196.131	0.368286
199.506	12.9036
202.881	14.4888
206.255	8.34662
209.63	4.96561
213.005	20.1618
216.38	27.4764
219.755	37.5309
223.129	55.4442
226.504	71.8045
229.879	29.3963
233.254	12.1692
236.629	5.9693
240.004	10.0947
243.378	23.28
246.753	40.7923
250.128	56.898
253.503	88.6236
256.878	131.872
260.252	158.71
263.627	174.688
267.002	170.277
270.377	154.006
273.752	128.376
277.127	107.303
280.501	83.2865
283.876	68.062
287.251	59.2485
290.626	57.5374
294.001	46.347
297.375	33.1911
300.75	22.5122
304.125	13.9688
307.5	9.20827
310.875	4.35266
314.25	4.07364
317.624	0.980103
320.999	0.324219
324.374	1.36635
327.749	0.855652
331.124	2.73386
334.498	0.928009
337.873	1.89284
341.248	1.51308
344.623	1.05769
347.998	2.4507
351.373	3.09853
354.747	2.61328
358.122	3.72317
361.497	2.3756
364.872	4.59372
368.247	5.83556
371.621	4.4393
374.996	5.44707
378.371	6.0641
381.746	6.33392
385.121	9.77214
388.495	11.1773
391.87	12.6583
395.245	14.9505
398.62	21.0775
401.995	29.5498
405.37	37.5692
408.744	52.9554
412.119	36.3795
415.494	26.9843
418.869	18.1825
422.244	10.6604
425.618	7.58948
428.993	3.81731
432.368	2.50612
435.743	2.20955
439.118	1.88081
442.493	2.24226
445.867	1.20488
449.242	0.845779
452.617	1.29805
455.992	7.50478
459.367	0.596039
462.741	1.74316
466.116	2.91013
469.491	2.35696
472.866	1.36978
476.241	3.07484
479.615	3.96845
482.99	5.32723
486.365	5.45999
489.74	3.78857
493.115	6.20563
496.49	8.57336
499.864	8.98743
503.239	7.70026
506.614	7.97272
509.989	18.1451
513.364	6.36142
516.739	3.89084
520.113	1.64557
523.488	1.81053
526.863	1.94722
530.238	1.34903
533.613	1.89616
536.987	0.850327
540.362	0.038757
543.737	0.22406
547.112	1.09489
550.487	0.471252
553.861	0.509079
557.236	0.977203
560.611	1.04643
563.986	0.691483
567.361	0.503113
570.736	0.68074
574.11	1.40833
577.485	0.492188
580.86	1.11911
584.235	3.424
587.61	1.60055
590.985	5.35349
594.359	3.474
597.734	5.54942
601.109	9.02107
604.484	9.12816
607.859	12.2183
611.233	13.8552
614.608	13.0781
617.983	8.784
621.358	6.73264
624.733	7.5136
628.107	6.1272
631.482	6.89186
634.857	8.03648
638.232	8.92975
641.607	11.3153
644.982	9.87402
648.356	11.4092
651.731	13.1244
655.106	13.3816
658.481	12.1936
661.856	11.8248
665.231	11.7941
668.605	13.3708
671.98	14.2322
675.355	12.6046
678.73	10.0404
682.105	9.68581
685.479	9.63855
688.854	6.30673
692.229	6.22229
695.604	4.12578
698.979	0.442902
702.354	0.584503
705.728	1.07785
709.103	2.62422
712.478	1.86195
715.853	0.456512
719.227	0.636627
722.602	0.572525
725.977	0.127625
729.352	0.081711
732.727	0.950867
736.102	1.59767
739.476	2.36253
742.851	2.0759
746.226	1.14293
749.601	0.315414
752.976	0.446808
756.351	1.74908
759.725	1.69664
763.1	1.17864
766.475	0.202133
769.85	1.58427
773.225	1.95264
776.599	1.00847
779.974	1.30385
783.349	1.89488
786.724	1.02348
790.099	1.75409
793.473	0.519577
796.848	2.51884
800.223	2.6485
803.598	2.78159
806.973	1.96974
810.348	3.16936
813.722	3.33075
817.097	2.17796
820.472	2.87866
823.847	2.25394
827.222	1.88621
830.597	2.80421
833.971	1.05287
837.346	1.01822
840.721	1.53955
844.096	1.45746
847.471	0.833252
850.846	0.221313
854.22	1.69105
857.595	0.40065
860.97	1.04239
864.345	0.934891
867.72	0.410812
871.094	2.72437
874.469	0.670395
877.844	0.553528
881.219	0.654861
884.594	2.33263
887.968	1.91925
891.343	1.78017
894.718	1.02304
898.093	2.02077
901.468	2.69809
904.842	2.30987
908.217	1.02448
911.592	2.87573
914.967	2.53809
918.342	0.801117
921.717	2.85776
925.091	1.09071
928.466	3.37494
931.841	3.10486
935.216	1.58954
938.591	2.14447
941.966	0.834
945.34	2.68108
948.715	2.10582
952.09	1.57002
955.465	2.76442
958.84	2.24179
962.214	2.7644
965.589	2.48485
968.964	2.00444
972.339	3.02679
975.714	2.7399
979.088	3.16475
982.463	0.523514
985.838	1.01503
989.213	1.02417
992.588	1.19916
995.963	1.19846
999.337	1.35367
1002.71	0.660645
1006.09	1.07401
1009.46	0.283508
1012.84	1.27837
1016.21	1.09319
1019.59	0.12941
1022.96	1.32687
1026.34	0.804703
1029.71	3.95135
1033.09	3.73286
1036.46	6.21698
1039.84	3.17064
1043.21	2.33685
1046.59	3.41721
1049.96	1.2729
1053.33	2.89896
1056.71	2.26271
1060.08	2.67334
1063.46	3.40118
1066.83	4.84288
1070.21	3.57777
1073.58	2.40544
1076.96	2.10646
1080.33	0.867889
1083.71	7.66666
1087.08	3.20418
1090.46	1.0098
1093.83	0.508438
1097.21	2.48085
1100.58	2.27544
1103.96	2.01256
1107.33	2.47652
1110.71	1.12465
1114.08	1.3192
1117.46	3.17075
1120.83	2.0683
1124.21	2.52695
1127.58	0.585541
1130.95	0.051666
1134.33	0.256943
1137.7	2.33229
1141.08	1.27345
1144.45	0.245392
1147.83	0.046906
1151.2	1.05695
1154.58	1.12715
1157.95	0.253677
1161.33	1.87457
1164.7	1.90833
1168.08	0.918869
1171.45	2.85194
1174.83	4.56409
1178.2	3.40373
1181.58	3.09189
1184.95	1.90298
1188.33	2.02789
1191.7	3.98116
1195.08	4.29877
1198.45	3.43906
1201.83	3.42088
1205.2	2.76515
1208.58	1.31308
1211.95	3.56972
1215.33	2.20567
1218.7	1.87965
1222.08	1.98933
1225.45	1.99872
1228.83	1.56407
1232.2	0.538406
1235.58	0.335205
1238.95	1.12628
1242.32	0.161255
1245.7	0.752182
1249.07	0.977692
1252.45	2.2391
1255.82	2.37199
1259.2	2.47485
1262.57	4.29376
1265.95	3.25427
1269.32	1.51369
1272.7	0.959717
1276.07	1.05601
1279.45	1.84787
1282.82	2.87433
1286.2	1.407
1289.57	1.43677
1292.95	0.302658
1296.32	3.91833
1299.7	0.479889
