Measurement: Raman, 780 nm, unoriented, Raman Data Processed
Mineral: Rickardite
Rruff sample: R140500
Ideal chemistry: Cu_2.64-3.00_Te_2_
Locality: 600' Level, Good Hope mine, Vulcan, Vulcan District, Gunnison County, Colorado, USA
Source: Rock Currier
Description: Rich, dark purple metallic plates with silvery gray bright metallic tellurium and very sparse tiny specs of metallic blue weissite on gray matrix.
Raman shift (cm-1)	intensity
87.582	0
90.9569	273.33
94.3317	456.908
97.7065	338.101
101.081	417.648
104.456	764.797
107.831	1566.93
111.206	3055.27
114.581	4727.7
117.955	4630.52
121.33	2793.4
124.705	1602.71
128.08	1008.52
131.455	934.648
134.829	1384.34
138.204	1381.5
141.579	427.767
144.954	127.3
148.329	22.7562
151.704	0.250122
155.078	28.4888
158.453	26.8413
161.828	14.2516
165.203	19.7642
168.578	13.9038
171.952	3.93738
175.327	5.28723
178.702	6.99561
182.077	17.8733
185.452	12.665
188.827	37.1099
192.201	49.9679
195.576	22.2085
198.951	19.4785
202.326	39.3984
205.701	58.3632
209.076	66.6582
212.45	87.4231
215.825	109.419
219.2	133.216
222.575	172.543
225.95	179.814
229.324	160.803
232.699	116.291
236.074	92.1683
239.449	69.0941
242.824	72.9354
246.198	73.0232
249.573	89.6089
252.948	104.171
256.323	113.054
259.698	109.323
263.073	104.353
266.447	88.9403
269.822	82.9188
273.197	71.0256
276.572	70.15
279.947	74.8805
283.322	102.956
286.696	121.25
290.071	108.534
293.446	86.2385
296.821	53.4476
300.196	36.6029
303.57	26.2156
306.945	11.4046
310.32	3.13843
313.695	8.15784
317.07	5.33136
320.445	2.30987
323.819	5.19824
327.194	7.26764
330.569	6.25531
333.944	0.93396
337.319	1.33789
340.693	2.3371
344.068	1.91644
347.443	1.46375
350.818	2.62012
354.193	11.5694
357.567	2.06848
360.942	7.25604
364.317	3.94824
367.692	2.95099
371.067	8.45746
374.442	7.97046
377.816	14.5626
381.191	13.8173
384.566	36.1786
387.941	31.2892
391.316	55.4761
394.69	64.4362
398.065	80.7079
401.44	95.2976
404.815	84.3265
408.19	66.0757
411.565	45.5229
414.939	33.5917
418.314	30.3408
421.689	14.022
425.064	11.8415
428.439	15.6013
431.813	6.25226
435.188	0.754028
438.563	1.66943
441.938	8.78418
445.313	5.25861
448.688	4.65033
452.062	4.91016
455.437	7.11859
458.812	8.0014
462.187	4.75964
465.562	5.3183
468.937	9.05505
472.311	9.17602
475.686	11.0787
479.061	9.87665
482.436	11.8292
485.81	6.76099
489.185	10.1564
492.56	15.9321
495.935	10.4188
499.31	13.4562
502.685	7.16486
506.059	8.23077
509.434	4.38373
512.809	3.26721
516.184	0.854248
519.559	7.43011
522.933	6.7782
526.308	3.58374
529.683	0.733582
533.058	6.02881
536.433	8.78326
539.808	2.6485
543.182	0.602356
546.557	0.219666
549.932	3.36292
553.307	6.0119
556.682	8.09399
560.057	2.90808
563.431	8.52911
566.806	0.65271
570.181	0.079895
573.556	8.36462
576.931	11.8397
580.305	13.8401
583.68	15.7291
587.055	14.9921
590.43	33.0856
593.805	35.7429
597.18	34.9949
600.554	52.2184
603.929	50.0551
607.304	47.4355
610.679	42.4993
614.054	28.8596
617.428	28.33
620.803	31.7068
624.178	31.2615
627.553	37.0809
630.928	46.162
634.303	56.4325
637.677	75.3863
641.052	88.3723
644.427	73.2719
647.802	51.0583
651.177	32.9008
654.552	27.7133
657.926	21.6723
661.301	21.1327
664.676	16.4774
668.051	7.78748
671.426	6.72852
674.8	5.12561
678.175	8.52899
681.55	8.6673
684.925	7.14581
688.3	9.82794
691.674	2.15015
695.049	2.77899
698.424	5.19977
701.799	5.04431
705.174	5.8747
708.548	9.35468
711.923	0.573792
715.298	0.26593
718.673	4.52564
722.048	0.120178
725.423	1.50366
728.797	9.49622
732.172	10.679
735.547	10.5716
738.922	5.1814
742.297	3.93805
745.672	5.71588
749.046	4.51379
752.421	2.46704
755.796	2.0603
759.171	1.96747
762.546	6.52228
765.92	10.3804
769.295	11.6708
772.67	2.29108
776.045	2.62616
779.42	3.97235
782.795	8.16132
786.169	9.92053
789.544	7.4978
792.919	8.6358
796.294	5.80322
799.669	7.37512
803.043	1.14911
806.418	5.86591
809.793	9.72479
813.168	5.82617
816.543	9.68079
819.918	6.89496
823.292	1.37952
826.667	1.51221
830.042	2.33466
833.417	1.80951
836.792	8.31793
840.166	7.84174
843.541	0.22345
846.916	6.97955
850.291	3.59918
853.666	4.90662
857.04	7.59564
860.415	9.37549
863.79	8.32165
867.165	8.86212
870.54	5.17096
873.915	7.49762
877.289	3.59119
880.664	10.508
884.039	5.02753
887.414	1.37817
890.789	1.64203
894.163	3.39606
897.538	5.396
900.913	0.186829
904.288	10.166
907.663	0.566467
911.038	9.05005
914.412	9.18079
917.787	3.92248
921.162	2.54089
924.537	6.41339
927.912	11.8769
931.287	3.79675
934.661	16.9886
938.036	11.9748
941.411	7.76886
944.786	6.7608
948.161	9.64612
951.535	5.41193
954.91	4.35053
958.285	4.38208
961.66	4.42957
965.035	17.1222
968.409	11.7772
971.784	1.84857
975.159	5.57855
978.534	8.91577
981.909	8.41785
985.284	2.86713
988.658	7.76343
992.033	3.5108
995.408	4.86829
998.783	6.65277
1002.16	9.58783
1005.53	3.51752
1008.91	6.08539
1012.28	11.4554
1015.66	11.5419
1019.03	6.50049
1022.41	5.02618
1025.78	8.72394
1029.16	6.39575
1032.53	3.42291
1035.91	3.6842
1039.28	7.89081
1042.66	3.2218
1046.03	3.00568
1049.4	5.05786
1052.78	6.31372
1056.15	12.2786
1059.53	3.03095
1062.9	10.0123
1066.28	9.10352
1069.65	9.90765
1073.03	0.712585
1076.4	1.5882
1079.78	4.83032
1083.15	8.71435
1086.53	8.49719
1089.9	10.9305
1093.28	3.74139
1096.65	5.17731
1100.03	11.1458
1103.4	0.725525
1106.78	0.504761
1110.15	2.31714
1113.53	1.43603
1116.9	3.31042
1120.28	6.42358
1123.65	0.004578
1127.03	1.45056
1130.4	4.15045
1133.78	0.407288
1137.15	9.91479
1140.53	1.63196
1143.9	7.17914
1147.28	4.4588
1150.65	6.0705
1154.03	14.1754
1157.4	8.83246
1160.77	0.50592
1164.15	3.97882
1167.52	11.3339
1170.9	8.78967
1174.27	9.05188
1177.65	7.9527
1181.02	1.74573
1184.4	9.07483
1187.77	2.4151
1191.15	7.70728
1194.52	6.60962
1197.9	7.84692
1201.27	10.1118
1204.65	0.67511
1208.02	4.00342
1211.4	9.25311
1214.77	8.85034
1218.15	3.81439
1221.52	8.41705
1224.9	9.41589
1228.27	1.93817
1231.64	0.840515
1235.02	6.34906
1238.39	0.610168
1241.77	6.89917
1245.14	7.25263
1248.52	5.50275
1251.89	5.15259
1255.27	7.85321
1258.64	9.82446
1262.02	9.49231
1265.39	10.3599
1268.77	5.89111
1272.14	7.83514
1275.52	3.1471
1278.89	10.8901
1282.27	0
