Measurement: Raman, 780 nm, unoriented, Raman Data Processed
Mineral: Sazhinite-(La)
Rruff sample: R120053
Ideal chemistry: Na_3_LaSi_6_O_15_2H_2_O
Locality: Aris quarry, near Windhoek, Namibia
Source: William W. Pinch
Description: Thin platy white crystals, associated with reddish brown accicular tuperssuatsiate and colorless granular natrolite. Note that the b-cell edge is half of that reported.
Raman shift (cm-1)	intensity
93.3674	0
96.2601	1.03723
99.1528	0.599121
102.046	1.10184
104.938	4.50087
107.831	1.81293
110.724	0.653427
113.616	4.43797
116.509	3.66943
119.402	5.47307
122.294	5.21419
125.187	1.94003
128.08	2.19475
130.972	0.448303
133.865	1.2923
136.758	0.222488
139.651	0.913269
142.543	0.843994
145.436	3.12193
148.329	4.17943
151.221	6.85983
154.114	11.9723
157.007	14.6387
159.9	16.9713
162.792	18.2895
165.685	18.44
168.578	17.0819
171.47	18.4394
174.363	17.0335
177.256	16.7678
180.149	15.541
183.041	14.3204
185.934	15.5119
188.827	17.1259
191.719	17.4541
194.612	19.8357
197.505	20.9593
200.397	24.6139
203.29	25.6819
206.183	28.328
209.076	30.5553
211.968	32.2901
214.861	30.3966
217.754	31.7041
220.646	28.8034
223.539	23.7098
226.432	20.5345
229.324	16.7895
232.217	12.7564
235.11	8.2867
238.002	3.8437
240.895	1.96494
243.788	0.933838
246.681	0.793823
249.573	1.15692
252.466	2.10866
255.359	5.11409
258.251	8.35721
261.144	15.8262
264.037	19.7118
266.93	23.9878
269.822	27.5431
272.715	30.8059
275.608	34.7559
278.5	39.4124
281.393	47.0954
284.286	48.9273
287.178	54.2596
290.071	58.282
292.964	61.0808
295.856	62.5544
298.749	60.759
301.642	56.2706
304.535	50.7786
307.427	43.7985
310.32	35.0592
313.213	23.0193
316.105	16.4882
318.998	6.01358
321.891	0.214584
324.784	1.34143
327.676	3.01964
330.569	4.63605
333.462	2.39647
336.354	1.01788
339.247	0.006866
342.14	0.858398
345.032	1.24527
347.925	2.30269
350.818	0.361954
353.711	0.362762
356.603	0.124115
359.496	0.458588
362.389	4.50211
365.281	11.0837
368.174	17.5831
371.067	24.5519
373.959	35.7058
376.852	49.2903
379.745	71.5545
382.637	88.7107
385.53	109.419
388.423	133.17
391.316	152.63
394.208	168.991
397.101	177.121
399.994	178.038
402.886	169.467
405.779	156.161
408.672	138.42
411.565	118.006
414.457	99.984
417.35	86.4881
420.243	73.4377
423.135	68.2513
426.028	66.1406
428.921	71.8395
431.813	78.1836
434.706	91.3204
437.599	108.571
440.492	129.955
443.384	147.203
446.277	168.076
449.17	187.677
452.062	199.04
454.955	204.746
457.848	204.881
460.74	199.019
463.633	190.148
466.526	173.554
469.419	150.505
472.311	126.394
475.204	104.876
478.097	86.8259
480.989	67.6668
483.882	56.0168
486.775	44.2387
489.668	32.9696
492.56	26.9316
495.453	20.4075
498.346	15.4279
501.238	8.1938
504.131	2.85442
507.024	2.47691
509.916	4.37042
512.809	3.78215
515.702	2.87816
518.595	3.49828
521.487	2.32466
524.38	1.87636
527.273	2.43881
530.165	4.80701
533.058	10.8329
535.951	13.3912
538.843	17.8895
541.736	21.8922
544.629	26.669
547.521	33.8325
550.414	40.3115
553.307	47.0985
556.2	52.6837
559.092	59.8166
561.985	64.2148
564.878	66.7236
567.77	68.0937
570.663	67.6514
573.556	66.0974
576.448	61.2954
579.341	58.7425
582.234	52.7677
585.127	47.5788
588.019	43.024
590.912	38.5287
593.805	33.9423
596.697	28.688
599.59	23.6195
602.483	20.611
605.375	14.5448
608.268	13.6958
611.161	9.51059
614.054	7.34262
616.946	5.04939
619.839	2.86743
622.732	3.25322
625.625	1.75486
628.517	0.444878
631.41	1.1239
634.303	0.059448
637.195	1.0882
640.088	0.756073
642.981	1.15698
645.873	1.11439
648.766	0.496101
651.659	1.19855
654.552	0.554398
657.444	1.53754
660.337	2.60756
663.23	4.36127
666.122	6.25666
669.015	6.80905
671.908	7.83247
674.8	9.15732
677.693	11.0376
680.586	11.1082
683.479	12.7937
686.371	12.5086
689.264	11.9151
692.157	11.7524
695.049	12.2158
697.942	12.0141
700.835	11.7891
703.727	11.9523
706.62	12.6044
709.513	11.5565
712.405	11.3461
715.298	14.0945
718.191	11.6406
721.084	8.7552
723.976	7.09714
726.869	4.52026
729.762	2.56202
732.654	1.95766
735.547	0.573051
738.44	2.26221
741.332	1.8492
744.225	1.27493
747.118	0.036026
750.011	2.47059
752.903	4.5068
755.796	9.79943
758.689	12.6159
761.581	18.5667
764.474	23.5467
767.367	25.8237
770.26	28.63
773.152	30.0843
776.045	28.4159
778.938	26.3913
781.83	24.6129
784.723	22.7622
787.616	17.6533
790.508	16.0243
793.401	16.4127
796.294	12.3929
799.187	12.364
802.079	11.7638
804.972	12.2663
807.865	13.006
810.757	15.5452
813.65	18.5563
816.543	23.578
819.435	29.3448
822.328	35.6319
825.221	39.5679
828.114	45.7438
831.006	49.9932
833.899	53.8101
836.792	56.5589
839.684	56.6813
842.577	56.9946
845.47	56.0756
848.362	55.6203
851.255	52.1025
854.148	46.2717
857.04	42.9765
859.933	39.061
862.826	34.3806
865.719	28.4419
868.611	23.214
871.504	18.7324
874.397	15.3336
877.289	11.4224
880.182	7.77443
883.075	6.04974
885.967	4.58468
888.86	1.24364
891.753	0.23838
894.646	0.662567
897.538	0.620529
900.431	1.79876
903.324	0.790489
906.216	1.12876
909.109	0.097488
912.002	0.008362
914.894	1.40196
917.787	2.01222
920.68	4.48644
923.573	6.05458
926.465	7.80769
929.358	9.76013
932.251	11.8409
935.143	12.5505
938.036	14.0757
940.929	15.0758
943.822	16.9276
946.714	19.9845
949.607	20.3235
952.5	20.2874
955.392	20.0173
958.285	19.5752
961.178	17.7153
964.07	16.5233
966.963	14.0045
969.856	12.7961
972.749	10.5863
975.641	10.201
978.534	8.14191
981.427	8.68848
984.319	6.65913
987.212	6.24023
990.105	7.24475
992.997	7.1336
995.89	9.26778
998.783	9.36997
1001.68	9.27348
1004.57	9.59258
1007.46	9.85832
1010.35	8.77374
1013.25	9.93658
1016.14	11.2536
1019.03	10.739
1021.92	11.8097
1024.82	11.9073
1027.71	13.8819
1030.6	12.7322
1033.49	14.371
1036.39	10.8949
1039.28	10.3584
1042.17	5.30161
1045.07	5.67404
1047.96	2.18666
1050.85	0.066895
1053.74	1.74941
1056.64	0.617798
1059.53	0.515442
1062.42	0.130585
1065.32	0.945389
1068.21	1.64479
1071.1	0.765121
1073.99	2.49678
1076.89	3.59915
1079.78	7.06235
1082.67	9.95259
1085.56	16.1715
1088.46	21.6606
1091.35	29.7979
1094.24	31.0108
1097.13	30.6529
1100.03	26.9316
1102.92	19.8765
1105.81	16.6191
1108.71	11.3558
1111.6	6.22115
1114.49	2.0657
1117.38	7.91806
1120.28	0.764954
1123.17	1.04953
1126.06	1.80795
1128.95	1.40292
1131.85	1.28616
1134.74	5.19061
1137.63	7.42715
1140.53	4.34869
1143.42	2.54828
1146.31	1.85208
1149.2	5.24417
1152.1	1.59247
1154.99	0
