Measurement: Raman, 532 nm, unoriented, Raman Data Processed
Mineral: Sazhinite-(La)
Rruff sample: R120053
Ideal chemistry: Na_3_LaSi_6_O_15_2H_2_O
Locality: Aris quarry, near Windhoek, Namibia
Source: William W. Pinch
Description: Thin platy white crystals, associated with reddish brown accicular tuperssuatsiate and colorless granular natrolite. Note that the b-cell edge is half of that reported.
Raman shift (cm-1)	intensity
99.2254	0
102.6	2.13788
105.975	0.027771
109.35	11.1041
112.725	1.82468
116.1	13.043
119.474	20.3715
122.849	22.4531
126.224	31.1998
129.599	38.8422
132.974	48.6603
136.348	58.2347
139.723	77.6024
143.098	78.9419
146.473	86.1559
149.848	88.9375
153.222	86.8678
156.597	84.716
159.972	81.1676
163.347	82.393
166.722	71.0038
170.097	64.517
173.471	60.014
176.846	58.8538
180.221	53.0772
183.596	47.5944
186.971	45.2047
190.345	43.256
193.72	43.1121
197.095	35.4787
200.47	33.3139
203.845	31.9493
207.22	37.4114
210.594	42.9289
213.969	47.4131
217.344	37.9908
220.719	28.8398
224.094	15.9429
227.469	12.6149
230.843	5.98055
234.218	1.22732
237.593	1.10288
240.968	1.39064
244.343	0.937698
247.717	1.41957
251.092	2.61516
254.467	5.97327
257.842	11.358
261.217	18.8639
264.591	21.7827
267.966	21.1179
271.341	14.2984
274.716	4.21103
278.091	1.26274
281.466	5.35118
284.84	0.718582
288.215	4.36581
291.59	11.5791
294.965	19.6578
298.34	27.876
301.714	41.4815
305.089	55.2822
308.464	72.6228
311.839	80.8607
315.214	78.819
318.589	71.3018
321.963	56.7734
325.338	47.2606
328.713	41.3029
332.088	40.4237
335.463	42.1332
338.837	49.0166
342.212	46.6699
345.587	45.4612
348.962	33.0207
352.337	15.1521
355.712	5.80896
359.086	3.22551
362.461	3.09593
365.836	1.37195
369.211	1.20673
372.586	2.85902
375.96	1.09088
379.335	3.37347
382.71	7.73091
386.085	9.11067
389.46	9.71718
392.834	6.80698
396.209	5.47624
399.584	7.90135
402.959	18.817
406.334	30.5776
409.709	46.9042
413.083	66.3829
416.458	85.5784
419.833	107.283
423.208	126.647
426.583	128.829
429.957	119.861
433.332	104.411
436.707	103.69
440.082	112.085
443.457	132.167
446.832	149.605
450.206	165.206
453.581	160.552
456.956	142.762
460.331	113.096
463.706	83.5818
467.08	51.9618
470.455	28.1101
473.83	16.0407
477.205	6.69438
480.58	11.9898
483.955	23.2471
487.329	31.1436
490.704	45.1672
494.079	62.5569
497.454	64.4144
500.829	52.5231
504.204	28.2658
507.578	11.1419
510.953	0.957169
514.328	4.02995
517.703	5.04896
521.078	0.910919
524.452	9.32257
527.827	18.4513
531.202	30.785
534.577	51.6612
537.952	60.6512
541.327	76.8822
544.701	79.4289
548.076	83.735
551.451	89.8667
554.826	101.549
558.201	118.165
561.575	128.799
564.95	136.927
568.325	144.103
571.7	142.825
575.075	138.044
578.449	124.017
581.824	109.292
585.199	93.1508
588.574	73.4249
591.949	58.0698
595.323	42.2806
598.698	26.2555
602.073	16.8246
605.448	7.0956
608.823	1.27461
612.198	1.06892
615.572	2.09108
618.947	0.366516
622.322	1.48349
625.697	4.31381
629.072	10.2465
632.447	14.199
635.821	19.4054
639.196	23.9508
642.571	24.4205
645.946	23.5982
649.321	20.5449
652.695	21.4152
656.07	15.0064
659.445	15.329
662.82	14.2278
666.195	13.488
669.569	16.9272
672.944	19.6258
676.319	19.8902
679.694	15.4152
683.069	10.0593
686.444	6.65462
689.818	3.14703
693.193	0.437927
696.568	1.27069
699.943	0.356369
703.318	0.13356
706.692	5.85229
710.067	13.0429
713.442	18.1204
716.817	17.947
720.192	14.338
723.567	7.63943
726.941	3.34686
730.316	1.4079
733.691	0.674438
737.066	2.4744
740.441	0.339523
743.816	0.042908
747.19	0.248367
750.565	1.89444
753.94	0.91391
757.315	2.10664
760.69	3.4764
764.064	6.73558
767.439	8.69244
770.814	12.5799
774.189	16.8731
777.564	16.7534
780.938	14.7016
784.313	15.1653
787.688	14.0295
791.063	14.4107
794.438	17.1292
797.813	16.0729
801.187	15.2325
804.562	7.92094
807.937	5.53481
811.312	3.71024
814.687	2.88387
818.062	2.77803
821.436	3.23303
824.811	4.19663
828.186	5.0183
831.561	6.67349
834.936	6.49425
838.31	5.32942
841.685	6.54971
845.06	7.48825
848.435	6.39414
851.81	8.8864
855.184	10.0193
858.559	12.0879
861.934	12.8394
865.309	16.6507
868.684	14.5635
872.059	10.9238
875.433	6.58997
878.808	4.20793
882.183	2.91444
885.558	1.77109
888.933	0.096634
892.308	1.73628
895.682	0.40538
899.057	3.9714
902.432	3.49695
905.807	2.67455
909.182	1.4868
912.556	1.95042
915.931	4.39345
919.306	12.4014
922.681	22.6986
926.056	28.8287
929.431	38.82
932.805	38.5577
936.18	36.3182
939.555	38.4342
942.93	48.9352
946.305	64.8731
949.679	79.8413
953.054	77.0252
956.429	64.9028
959.804	56.9168
963.179	52.7729
966.553	55.5594
969.928	60.8044
973.303	58.6032
976.678	41.7628
980.053	31.1207
983.428	28.9237
986.802	25.8179
990.177	34.3286
993.552	44.1154
996.927	54.1592
1000.3	54.4896
1003.68	52.5005
1007.05	43.9437
1010.43	40.5785
1013.8	42.6581
1017.18	39.1361
1020.55	46.6358
1023.92	57.9415
1027.3	73.6477
1030.67	87.3718
1034.05	94.6225
1037.42	90.295
1040.8	76.2005
1044.17	53.6459
1047.55	29.1044
1050.92	8.94046
1054.3	1.53326
1057.67	4.14648
1061.05	3.29462
1064.42	3.13916
1067.8	1.89136
1071.17	14.0815
1074.55	29.7954
1077.92	50.9421
1081.3	88.8467
1084.67	144.216
1088.05	221.224
1091.42	310.292
1094.8	390.678
1098.17	414.015
1101.55	359.337
1104.92	285.785
1108.3	226.101
1111.67	177.624
1115.05	138.301
1118.42	108.514
1121.8	80.7206
1125.17	55.3672
1128.55	37.7225
1131.92	24.581
1135.29	17.8626
1138.67	9.99884
1142.04	6.63965
1145.42	3.57886
1148.79	2.41173
1152.17	1.07068
1155.54	0.13147
1158.92	0.454224
1162.29	0.429337
1165.67	1.01616
1169.04	1.1611
1172.42	0.532089
1175.79	1.25133
1179.17	0.454971
1182.54	0.128723
1185.92	1.17221
1189.29	1.28247
1192.67	0.906509
1196.04	0.196716
1199.42	1.36488
1202.79	1.86591
1206.17	1.30203
1209.54	1.63188
1212.91	1.19801
1216.29	2.98477
1219.66	2.29889
1223.04	3.60603
1226.41	4.27092
1229.79	2.90646
1233.16	4.91312
1236.54	3.65451
1239.91	4.9682
1243.29	7.81178
1246.66	6.57423
1250.04	8.966
1253.41	8.98091
1256.79	6.82681
1260.16	6.97051
1263.54	6.53499
1266.91	6.04439
1270.29	6.68898
1273.66	2.20918
1277.04	5.22786
1280.41	3.68903
1283.79	1.83575
1287.16	1.49066
1290.54	0.628647
1293.91	1.51135
1297.29	2.33662
1300.66	0
