Measurement: Raman, 532 nm, unoriented, Raman Data Processed
Mineral: Sulfoborite
Rruff sample: R140689
Ideal chemistry: Mg_3_[B(OH)_4_]_2_(S^6+^O_4_)(OH,F)_2_
Locality: Gröna mine, Bernburg, Stassfurt Potash Deposit, Saxony-Anhalt, Germany
Source: Rock Currier
Description: Colorless prismatic orthorhombic crystals. Locality is listed as 'Bernburg-Gröna, Bezirk Halle', 'Gröna Mine, Bernburg' is a guess.
Raman shift (cm-1)	intensity
121.403	0
124.778	75.9111
128.152	45.8275
131.527	1.40405
134.902	15.3483
138.277	27.66
141.652	49.2959
145.026	64.3223
148.401	70.5094
151.776	42.2176
155.151	26.1497
158.526	32.9613
161.901	90.9065
165.275	188.236
168.65	99.5819
172.025	51.0366
175.4	37.057
178.775	3.3147
182.149	22.4896
185.524	49.6009
188.899	68.4111
192.274	24.0084
195.649	5.05981
199.024	10.813
202.398	34.6566
205.773	88.7312
209.148	100.243
212.523	45.702
215.898	19.8466
219.273	17.7632
222.647	12.9075
226.022	0.539917
229.397	4.104
232.772	26.9591
236.147	45.9453
239.521	34.4379
242.896	0.520386
246.271	5.03101
249.646	4.90845
253.021	16.1117
256.396	28.1058
259.77	38.7843
263.145	60.7814
266.52	102.26
269.895	212.526
273.27	364.081
276.644	408.571
280.019	246.02
283.394	115.04
286.769	52.2919
290.144	20.4338
293.519	7.47766
296.893	2.21265
300.268	2.60059
303.643	3.55261
307.018	1.98853
310.392	1.26965
313.767	6.77039
317.142	18.9413
320.517	28.5565
323.892	48.4567
327.267	38.4559
330.641	23.1774
334.016	21.0817
337.391	22.9863
340.766	46.5326
344.141	60.8236
347.515	90.2819
350.89	123.725
354.265	155.804
357.64	150.739
361.015	159.733
364.39	165.976
367.764	172.29
371.139	169.538
374.514	147.869
377.889	119.981
381.264	92.1948
384.639	74.0532
388.013	67.1352
391.388	56.0818
394.763	43.4984
398.138	45.2205
401.513	39.4825
404.887	35.5425
408.262	20.0077
411.637	15.7183
415.012	12.8954
418.387	6.5282
421.762	4.28332
425.136	7.79785
428.511	3.23743
431.886	1.39526
435.261	8.27661
438.636	10.6953
442.01	12.3366
445.385	23.7535
448.76	37.8147
452.135	44.5018
455.51	56.5442
458.885	92.9791
462.259	138.592
465.634	181.56
469.009	231.599
472.384	298.356
475.759	346.363
479.133	337.531
482.508	237.536
485.883	149.105
489.258	94.788
492.633	77.085
496.007	67.9578
499.382	67.0442
502.757	65.8276
506.132	44.6574
509.507	30.662
512.882	13.1786
516.256	3.64002
519.631	7.55774
523.006	4.34998
526.381	1.09448
529.756	3.39246
533.13	2.60034
536.505	7.82336
539.88	17.4849
543.255	21.3206
546.63	20.2169
550.005	19.1625
553.379	21.817
556.754	24.84
560.129	32.8555
563.504	43.5985
566.879	49.3439
570.254	61.8957
573.628	78.1667
577.003	92.0918
580.378	102.262
583.753	111.314
587.128	85.7644
590.502	45.5339
593.877	32.9506
597.252	17.5231
600.627	17.0707
604.002	27.7268
607.376	41.6289
610.751	72.6384
614.126	110.769
617.501	146.806
620.876	183.301
624.25	173.314
627.625	100.673
631	49.2513
634.375	24.4041
637.75	20.891
641.125	14.2114
644.5	12.8938
647.874	18.4678
651.249	38.7183
654.624	59.9492
657.999	94.9827
661.374	68.6686
664.748	25.8987
668.123	14.1116
671.498	12.3201
674.873	3.8125
678.248	7.02747
681.622	3.98889
684.997	3.57385
688.372	0.081421
691.747	3.81726
695.122	2.8053
698.496	5.28625
701.871	4.64575
705.246	6.0376
708.621	8.59729
711.996	6.61523
715.371	3.99951
718.745	5.54114
722.12	7.89771
725.495	10.0883
728.87	12.8496
732.245	22.1395
735.62	32.691
738.994	38.3193
742.369	32.2247
745.744	43.4716
749.119	56.9929
752.494	74.4061
755.868	105.179
759.243	144.618
762.618	208.25
765.993	289.313
769.368	421.669
772.742	616.677
776.117	807.119
779.492	760.081
782.867	472.515
786.242	246.836
789.617	139.424
792.991	83.819
796.366	63.0775
799.741	53.5192
803.116	45.7462
806.491	47.7244
809.865	50.1725
813.24	48.162
816.615	31.8762
819.99	28.4613
823.365	22.057
826.74	24.1466
830.114	21.0669
833.489	20.9529
836.864	19.0574
840.239	13.8796
843.614	17.517
846.989	11.3001
850.363	2.8457
853.738	6.78174
857.113	12.2373
860.488	0.061523
863.863	5.12109
867.237	0.558228
870.612	2.89356
873.987	4.42725
877.362	4.47375
880.737	3.62842
884.111	0.96167
887.486	7.12293
890.861	9.25586
894.236	9.31555
897.611	15.6825
900.986	15.8433
904.36	24.4395
907.735	19.4941
911.11	14.937
914.485	20.9718
917.86	24.1438
921.235	23.7025
924.609	20.0719
927.984	21.0461
931.359	30.7791
934.734	32.3361
938.109	25.8441
941.483	22.7834
944.858	10.5977
948.233	14.9487
951.608	11.8391
954.983	0.28418
958.357	4.8479
961.732	9.51709
965.107	8.52344
968.482	9.68286
971.857	18.3652
975.232	18.8591
978.606	30.0083
981.981	33.2141
985.356	43.2
988.731	61.7664
992.106	97.1182
995.481	142.52
998.855	224.117
1002.23	419.375
1005.61	838.654
1008.98	1954.82
1012.36	3427.69
1015.73	1670.9
1019.1	634.731
1022.48	325.089
1025.85	182.448
1029.23	105.391
1032.6	67.3818
1035.98	39.8364
1039.35	26.1404
1042.73	11.199
1046.1	3.40356
1049.48	2.40503
1052.85	4.68848
1056.23	0.475342
1059.6	0.052734
1062.98	2.70606
1066.35	2.74585
1069.73	0.994629
1073.1	7.48218
1076.48	16.3889
1079.85	7.95215
1083.23	22.0913
1086.6	21.1924
1089.97	14.9556
1093.35	4.6438
1096.72	11.0254
1100.1	20.1252
1103.47	27.2551
1106.85	32.1108
1110.22	22.5532
1113.6	8.98804
1116.97	15.7205
1120.35	20.9587
1123.72	26.0327
1127.1	22.0017
1130.47	28.7998
1133.85	41.196
1137.22	35.3618
1140.6	24.5586
1143.97	12.8574
1147.35	0.071533
1150.72	0.436279
1154.1	0.369385
1157.47	5.63428
1160.85	12.7656
1164.22	22.231
1167.6	32.0627
1170.97	44.1296
1174.35	57.3738
1177.72	45.9338
1181.1	22.7383
1184.47	13.803
1187.85	12.4509
1191.22	17.6035
1194.6	14.1548
1197.97	11.6921
1201.34	21.7935
1204.72	29.0549
1208.09	22.6851
1211.47	23.9912
1214.84	30.6548
1218.22	26.2561
1221.59	25.9758
1224.97	22.7483
1228.34	26.7136
1231.72	33.8799
1235.09	39.2039
1238.47	37.687
1241.84	31.7048
1245.22	24.5024
1248.59	21.1851
1251.97	8.28198
1255.34	12.5181
1258.72	9.41748
1262.09	3.19336
1265.47	17.4287
1268.84	5.06592
1272.21	4.00537
1275.59	1.37402
1278.96	12.0947
1282.34	14.6367
1285.71	13.0146
1289.09	5.76758
1292.46	0.053223
1295.84	12.1116
1299.21	4.95825
