Measurement: Raman, 780 nm, unoriented, Raman Data Processed
Mineral: Sulfoborite
Rruff sample: R140689
Ideal chemistry: Mg_3_[B(OH)_4_]_2_(S^6+^O_4_)(OH,F)_2_
Locality: Gröna mine, Bernburg, Stassfurt Potash Deposit, Saxony-Anhalt, Germany
Source: Rock Currier
Description: Colorless prismatic orthorhombic crystals. Locality is listed as 'Bernburg-Gröna, Bezirk Halle', 'Gröna Mine, Bernburg' is a guess.
Raman shift (cm-1)	intensity
98.1886	0
101.563	36.611
104.938	90.306
108.313	20.8243
111.688	7.73572
115.063	44.6473
118.438	63.2272
121.812	96.396
125.187	76.2365
128.562	24.6663
131.937	0.946655
135.312	5.43018
138.686	1.90564
142.061	15.1875
145.436	29.7747
148.811	13.0938
152.186	0.043945
155.56	7.47534
158.935	53.3923
162.31	142.467
165.685	107.705
169.06	47.853
172.435	47.1418
175.809	21.9561
179.184	16.235
182.559	37.9957
185.934	65.8165
189.309	50.2029
192.684	6.2038
196.058	1.8067
199.433	10.8127
202.808	39.7573
206.183	49.6246
209.558	21.0389
212.932	12.3141
216.307	14.2772
219.682	22.6036
223.057	18.1621
226.432	8.66168
229.806	12.5281
233.181	21.0969
236.556	20.0174
239.931	14.0047
243.306	12.6162
246.681	24.8506
250.055	36.5892
253.43	39.9172
256.805	37.1755
260.18	32.0154
263.555	46.5314
266.93	72.8845
270.304	113.05
273.679	135.66
277.054	85.8411
280.429	40.1458
283.804	13.7178
287.178	5.10846
290.553	2.5318
293.928	1.83435
297.303	4.68622
300.678	1.40668
304.053	0.952759
307.427	7.24109
310.802	9.07178
314.177	20.7189
317.552	26.743
320.927	34.1507
324.301	38.3207
327.676	35.1233
331.051	33.1783
334.426	37.1668
337.801	36.1228
341.175	53.1638
344.55	71.9303
347.925	94.0648
351.3	112.417
354.675	127.117
358.05	131.683
361.424	129.368
364.799	114.746
368.174	101.11
371.549	81.3729
374.924	65.4768
378.298	51.0137
381.673	41.4178
385.048	42.3725
388.423	40.9187
391.798	36.2323
395.173	30.6352
398.547	30.5797
401.922	31.3085
405.297	19.8143
408.672	14.2673
412.047	11.176
415.421	5.45209
418.796	2.18945
422.171	1.06555
425.546	1.43451
428.921	0.586792
432.296	0.248169
435.67	0.670776
439.045	9.35455
442.42	11.465
445.795	14.463
449.17	12.2674
452.545	22.1769
455.919	37.1617
459.294	50.3296
462.669	54.5908
466.044	69.5585
469.419	84.9871
472.793	105.556
476.168	111.813
479.543	98.6846
482.918	63.7951
486.293	40.3601
489.668	27.9606
493.042	23.4837
496.417	20.7882
499.792	20.7659
503.167	20.1169
506.542	8.75104
509.916	5.69684
513.291	0.600403
516.666	0.335266
520.041	1.71008
523.416	0.362061
526.79	0.80719
530.165	0.074829
533.54	1.36298
536.915	4.16064
540.29	4.87152
543.665	5.32983
547.039	6.49152
550.414	14.2614
553.789	18.1277
557.164	24.9676
560.539	30.8812
563.913	37.7335
567.288	30.7907
570.663	27.7084
574.038	28.6004
577.413	34.0246
580.788	37.3918
584.162	35.6767
587.537	23.3027
590.912	10.8833
594.287	11.3066
597.662	10.428
601.037	15.3044
604.411	20.4257
607.786	42.1906
611.161	73.1985
614.536	112.634
617.911	176.242
621.285	209.652
624.66	149.056
628.035	69.1807
631.41	33.1704
634.785	15.7632
638.159	12.7538
641.534	15.15
644.909	16.6654
648.284	26.1706
651.659	45.1005
655.034	72.5874
658.408	67.9038
661.783	30.0167
665.158	12.9053
668.533	1.94342
671.908	0.804688
675.283	2.30426
678.657	1.23212
682.032	0.610168
685.407	0.101807
688.782	1.47797
692.157	1.58313
695.531	9.15759
698.906	20.072
702.281	12.5503
705.656	6.53748
709.031	4.9552
712.405	2.23413
715.78	0.017334
719.155	2.5257
722.53	3.43958
725.905	4.9455
729.279	3.29169
732.654	2.60272
736.029	3.31189
739.404	4.74078
742.779	4.87323
746.154	24.2545
749.528	28.7819
752.903	18.1135
756.278	26.699
759.653	41.2806
763.028	64.6353
766.403	89.0744
769.777	136.313
773.152	197.316
776.527	216.436
779.902	154.195
783.277	82.493
786.652	44.2013
790.026	22.371
793.401	16.9088
796.776	13.5626
800.151	13.8903
803.526	12.6621
806.9	14.6619
810.275	12.6511
813.65	16.9277
817.025	10.1885
820.4	10.4108
823.774	4.55994
827.149	3.92401
830.524	0.744629
833.899	2.69037
837.274	4.1474
840.649	4.92761
844.023	0.354126
847.398	2.54681
850.773	2.48511
854.148	1.10965
857.523	0.959229
860.898	0.181396
864.272	1.50055
867.647	0.09903
871.022	3.48468
874.397	0.012299
877.771	0.74646
881.146	2.78656
884.521	1.70132
887.896	2.86505
891.271	6.91367
894.646	7.49329
898.02	10.4223
901.395	10.145
904.77	9.93384
908.145	10.2922
911.52	12.4464
914.894	13.0628
918.269	17.8006
921.644	20.1724
925.019	21.5017
928.394	20.4096
931.769	19.1779
935.143	19.1223
938.518	13.6523
941.893	10.4574
945.268	5.79193
948.643	1.24252
952.018	0.368011
955.392	0.036926
958.767	2.14606
962.142	1.05466
965.517	2.50555
968.892	2.37765
972.266	2.40289
975.641	3.7608
979.016	7.8428
982.391	12.6224
985.766	12.1369
989.141	18.0581
992.515	31.4066
995.89	50.4988
999.265	89.8192
1002.64	180.36
1006.01	427.393
1009.39	946.146
1012.76	692.941
1016.14	242.409
1019.51	108.028
1022.89	61.137
1026.26	32.6447
1029.64	20.4887
1033.01	11.1382
1036.39	8.53842
1039.76	2.88058
1043.14	2.49481
1046.51	0.585114
1049.89	1.54117
1053.26	0.229706
1056.64	1.62906
1060.01	0.03302
1063.39	0.377838
1066.76	0.488953
1070.14	0.449554
1073.51	8.5697
1076.89	14.4991
1080.26	18.2569
1083.63	15.3762
1087.01	13.3857
1090.38	9.23145
1093.76	4.29864
1097.13	7.74707
1100.51	5.2428
1103.88	5.21738
1107.26	7.40341
1110.63	6.81561
1114.01	3.10782
1117.38	1.42523
1120.76	7.72803
1124.13	6.53803
1127.51	12.1006
1130.88	10.8042
1134.26	12.2953
1137.63	10.2021
1141.01	2.10336
1144.38	0.822876
1147.76	1.82413
1151.13	0.203949
1154.51	4.56354
1157.88	8.30447
1161.26	11.6352
1164.63	19.6113
1168.01	22.8425
1171.38	27.3722
1174.76	21.5004
1178.13	14.6071
1181.51	10.2806
1184.88	10.2336
1188.26	12.6072
1191.63	14.1879
1195	13.5471
1198.38	19.477
1201.75	23.5331
1205.13	25.0327
1208.5	28.5992
1211.88	25.9143
1215.25	20.99
1218.63	20.8784
1222	16.0006
1225.38	13.5057
1228.75	12.3213
1232.13	10.4388
1235.5	10.883
1238.88	4.46619
1242.25	4.44531
1245.63	3.08945
1249	0.906281
1252.38	1.25455
1255.75	4.51886
1259.13	3.20361
1262.5	4.07727
1265.88	6.75729
1269.25	3.39246
1272.62	4.34784
1276	1.82114
1279.38	2.55612
