Measurement: Raman, 532 nm, unoriented, Raman Data Processed
Mineral: Takedaite
Rruff sample: R140795
Ideal chemistry: Ca_3_B_2_O_6_
Locality: Fuka mine, Bitchu-cho-fuka, Takahashi City, Okayama Prefecture, Chugoku Region, Honshu Island, Japan
Source: Rock Currier
Description: Gray-white granular associated with nifontovite
Raman shift (cm-1)	intensity
103.564	0
106.939	5.25986
110.314	4.791
113.689	0.58017
117.064	5.30286
120.439	3.99368
123.813	8.26557
127.188	6.1114
130.563	10.3424
133.938	12.978
137.313	17.9958
140.688	28.932
144.062	28.588
147.437	43.0146
150.812	53.3039
154.187	68.1876
157.561	89.1551
160.936	105.479
164.311	97.4746
167.686	56.5364
171.061	28.7378
174.436	13.6741
177.81	4.68438
181.185	0.974396
184.56	0.530228
187.935	2.34314
191.31	2.72242
194.685	2.9115
198.059	18.2205
201.434	31.0083
204.809	47.6012
208.184	82.4559
211.559	156.421
214.933	224.445
218.308	113.776
221.683	31.0682
225.058	9.21832
228.433	0.744446
231.808	6.15421
235.182	26.7768
238.557	42.4523
241.932	57.481
245.307	95.8271
248.682	186.202
252.056	217.764
255.431	51.8089
258.806	13.7349
262.181	12.1676
265.556	24.176
268.93	33.3152
272.305	49.5181
275.68	91.9404
279.055	145.994
282.43	98.3489
285.805	26.8429
289.179	5.60979
292.554	0.129509
295.929	2.0023
299.304	1.55137
302.679	4.31152
306.053	15.0681
309.428	23.0994
312.803	40.6748
316.178	66.8187
319.553	91.3077
322.928	97.7757
326.302	111.516
329.677	145.944
333.052	213.135
336.427	286.962
339.802	262.76
343.176	147.406
346.551	74.2998
349.926	41.7025
353.301	25.5097
356.676	18.7987
360.051	13.4028
363.425	7.67312
366.8	5.94828
370.175	5.02172
373.55	1.39157
376.925	1.02021
380.3	0.922493
383.674	0.061005
387.049	0.548431
390.424	0.122704
393.799	0.193901
397.174	0.631744
400.548	1.06287
403.923	0.293983
407.298	1.46573
410.673	0.530754
414.048	0.938408
417.423	0.236023
420.797	0.175911
424.172	1.17153
427.547	1.29543
430.922	2.50716
434.297	1.86333
437.671	2.95017
441.046	3.99078
444.421	5.4578
447.796	6.43486
451.171	6.04584
454.546	4.99178
457.92	5.24323
461.295	4.77194
464.67	5.10424
468.045	4.6257
471.42	5.28256
474.794	7.76775
478.169	7.72208
481.544	8.52808
484.919	11.6964
488.294	2.69009
491.668	1.97952
495.043	1.33043
498.418	1.24946
501.793	0.931961
505.168	0.144196
508.543	0.066536
511.917	0.398926
515.292	0.563927
518.667	0.126297
522.042	0.095589
525.417	0.327103
528.791	0.578667
532.166	0.188324
535.541	1.09728
538.916	0.142616
542.291	1.33069
545.665	0.512772
549.04	1.14362
552.415	0.29995
555.79	1.78036
559.165	1.62683
562.54	1.31014
565.914	1.37635
569.289	2.3214
572.664	3.40601
576.039	3.43854
579.414	5.74143
582.789	6.96082
586.163	8.466
589.538	12.3737
592.913	18.8903
596.288	33.9006
599.663	58.1815
603.038	91.7656
606.412	137.525
609.787	179.513
613.162	172.223
616.537	110.11
619.912	58.1213
623.286	32.4266
626.661	20.0871
630.036	14.1289
633.411	8.46828
636.786	6.04194
640.16	5.55853
643.535	3.16457
646.91	2.58524
650.285	1.81239
653.66	1.60427
657.034	0.950897
660.409	0.731201
663.784	1.24516
667.159	1.84628
670.534	0.843422
673.909	1.72086
677.283	1.12559
680.658	0.035599
684.033	0.262268
687.408	0.700783
690.783	0.19854
694.158	0.576294
697.532	1.11394
700.907	0.717766
704.282	2.7186
707.657	4.87093
711.032	10.2772
714.406	9.27243
717.781	4.68445
721.156	6.29747
724.531	4.92929
727.906	3.88988
731.28	4.15767
734.655	2.97061
738.03	1.55626
741.405	1.05142
744.78	0.665085
748.155	0.388321
751.529	0.634567
754.904	0.817047
758.279	0.356369
761.654	0.607941
765.029	1.03519
768.404	1.01018
771.778	0.305939
775.153	1.09663
778.528	2.72075
781.903	3.17847
785.278	1.61461
788.652	0.699921
792.027	1.95462
795.402	4.69395
798.777	2.92389
802.152	1.23642
805.527	1.47552
808.901	2.80971
812.276	10.0762
815.651	18.7596
819.026	35.755
822.401	47.4799
825.775	31.3918
829.15	12.7314
832.525	5.36348
835.9	3.23476
839.275	3.0973
842.649	0.933838
846.024	1.59004
849.399	0.709991
852.774	0.366745
856.149	1.6974
859.524	0.017853
862.898	0.405533
866.273	0.717545
869.648	1.19176
873.023	0.668747
876.398	0.285263
879.773	0.479111
883.147	1.27467
886.522	2.66927
889.897	4.07114
893.272	5.92854
896.646	9.94156
900.021	19.3708
903.396	27.6425
906.771	45.3786
910.146	62.1201
913.521	102.321
916.895	247.137
920.27	464.417
923.645	930.513
927.02	1510.37
930.395	787.371
933.77	225.931
937.144	93.7485
940.519	50.6739
943.894	29.668
947.269	18.9973
950.644	12.1524
954.019	8.76817
957.393	5.74794
960.768	3.52191
964.143	3.41075
967.518	2.60754
970.893	1.14096
974.267	0.634369
977.642	1.55113
981.017	0.451599
984.392	0.061417
987.767	0.203735
991.141	0.02356
994.516	0.10672
997.891	0.204224
1001.27	0.104828
1004.64	1.02409
1008.02	1.21806
1011.39	0.577271
1014.76	1.72075
1018.14	0.662827
1021.51	0.335678
1024.89	0.855255
1028.26	1.95572
1031.64	1.85438
1035.01	2.75108
1038.39	2.64151
1041.76	1.48646
1045.14	1.70955
1048.51	1.17236
1051.89	2.33652
1055.26	2.48137
1058.64	3.10689
1062.01	2.91746
1065.39	4.00095
1068.76	6.39271
1072.14	7.58392
1075.51	7.25403
1078.89	16.0593
1082.26	27.9643
1085.64	67.7326
1089.01	58.4909
1092.39	11.0458
1095.76	2.72987
1099.14	1.94574
1102.51	2.14653
1105.88	1.22914
1109.26	0.254837
1112.63	0.333038
1116.01	0.030319
1119.38	0.582642
1122.76	2.09766
1126.13	0.479034
1129.51	0.378082
1132.88	0.460739
1136.26	0.503006
1139.63	0.062241
1143.01	0.870178
1146.38	0.994308
1149.76	0.112198
1153.13	0.949753
1156.51	1.25267
1159.88	1.3159
1163.26	1.9406
1166.63	1.83762
1170.01	0.038681
1173.38	1.2065
1176.76	1.9077
1180.13	2.94426
1183.51	1.09845
1186.88	1.09062
1190.26	0.214203
1193.63	0.046738
1197.01	0.421829
1200.38	0.438385
1203.76	0.291214
1207.13	0.456421
1210.51	1.21854
1213.88	2.3259
1217.25	4.63199
1220.63	3.8466
1224	1.94607
1227.38	0.351563
1230.75	0.163162
1234.13	0.771362
1237.5	0.703262
1240.88	2.28404
1244.25	4.57048
1247.63	6.34746
1251	7.60811
1254.38	13.0101
1257.75	17.1604
1261.13	18.7082
1264.5	19.6414
1267.88	18.2159
1271.25	16.5484
1274.63	13.7446
1278	11.5897
1281.38	8.98784
1284.75	5.22266
1288.12	2.8728
1291.5	0.884338
1294.88	0.926376
1298.25	0.095459
