Measurement: Raman, 780 nm, unoriented, Raman Data Processed
Mineral: Takedaite
Rruff sample: R140795
Ideal chemistry: Ca_3_B_2_O_6_
Locality: Fuka mine, Bitchu-cho-fuka, Takahashi City, Okayama Prefecture, Chugoku Region, Honshu Island, Japan
Source: Rock Currier
Description: Gray-white granular associated with nifontovite
Raman shift (cm-1)	intensity
108.795	0
112.17	0.082199
115.545	3.89934
118.92	0.024261
122.294	4.56813
125.669	0.637405
129.044	3.42438
132.419	0.022179
135.794	1.22277
139.168	2.91279
142.543	5.31722
145.918	13.7495
149.293	18.1466
152.668	26.7826
156.043	35.9564
159.417	42.2788
162.792	34.253
166.167	16.023
169.542	7.27542
172.917	1.40422
176.292	1.34102
179.666	0.857712
183.041	0.161118
186.416	0.590309
189.791	0.329239
193.166	5.57626
196.54	9.76811
199.915	12.5527
203.29	20.4238
206.665	33.6039
210.04	65.7024
213.415	88.3112
216.789	40.8567
220.164	15.83
223.539	9.40022
226.914	7.3962
230.289	12.8488
233.663	18.1764
237.038	20.7222
240.413	27.7426
243.788	48.3412
247.163	99
250.537	91.0808
253.912	21.9174
257.287	9.58009
260.662	11.1949
264.037	12.6731
267.412	14.2718
270.786	22.2734
274.161	42.0977
277.536	70.3277
280.911	38.7257
284.286	11.74
287.661	3.19271
291.035	0.239143
294.41	1.1015
297.785	0.616611
301.16	1.51667
304.535	4.97895
307.909	8.26964
311.284	15.5595
314.659	28.1001
318.034	37.3526
321.409	35.5023
324.784	38.2375
328.158	52.2607
331.533	81.6028
334.908	115.492
338.283	98.3984
341.658	52.4109
345.032	26.226
348.407	14.9311
351.782	9.61718
355.157	7.1042
358.532	4.23001
361.906	3.25516
365.281	2.38396
368.656	0.692833
372.031	1.00371
375.406	0.579746
378.781	1.04814
382.155	0.571262
385.53	0.107788
388.905	0.0578
392.28	0.050079
395.655	0.273872
399.029	0.07621
402.404	0.0588
405.779	0.626301
409.154	0.425562
412.529	0.639519
415.904	0.689787
419.278	1.26384
422.653	0.94235
426.028	0.689585
429.403	1.90564
432.778	1.59675
436.152	1.77613
439.527	2.77204
442.902	3.05691
446.277	2.64219
449.652	2.66802
453.027	2.93929
456.401	3.06016
459.776	2.52547
463.151	2.18406
466.526	2.6484
469.901	2.32837
473.276	2.81729
476.65	2.95124
480.025	2.39169
483.4	1.87725
486.775	1.77313
490.15	1.50852
493.524	1.77266
496.899	0.845642
500.274	0.346106
503.649	0.738783
507.024	0.514853
510.399	0.298981
513.773	0.525612
517.148	0.656229
520.523	0.106876
523.898	0.432228
527.273	0.129519
530.647	0.239403
534.022	0.075466
537.397	0.233232
540.772	0.244501
544.147	0.613203
547.521	0.208416
550.896	0.221029
554.271	0.745605
557.646	0.859291
561.021	0.121256
564.396	0.270678
567.77	0.387827
571.145	0.781544
574.52	1.2153
577.895	2.56845
581.27	2.57077
584.644	2.85608
588.019	4.52712
591.394	6.76668
594.769	11.8032
598.144	18.859
601.519	29.559
604.893	48.5235
608.268	71.0911
611.643	67.8054
615.018	42.2202
618.393	21.953
621.768	11.8585
625.142	6.93959
628.517	4.83352
631.892	2.99901
635.267	2.22585
638.642	1.66995
642.016	0.78187
645.391	0.267736
648.766	0.493713
652.141	0.273222
655.516	0.627111
658.89	0.648813
662.265	0.673609
665.64	0.24548
669.015	0.993864
672.39	0.396742
675.765	0.115114
679.139	0.479355
682.514	0.051689
685.889	0.24065
689.264	0.204824
692.639	0.035814
696.014	0.347618
699.388	0.474977
702.763	0.870499
706.138	2.15811
709.513	4.35257
712.888	4.34368
716.262	2.29478
719.637	2.72882
723.012	1.49705
726.387	1.7665
729.762	1.52824
733.136	0.719667
736.511	0.427296
739.886	0.596836
743.261	0.785931
746.636	0.630905
750.011	0.698061
753.385	0.067892
756.76	0.449551
760.135	0.110159
763.51	0.256077
766.885	0.145393
770.26	0.059252
773.634	0.630444
777.009	0.576826
780.384	1.92607
783.759	0.543331
787.134	0.673416
790.508	0.750893
793.883	1.22974
797.258	1.29203
800.633	0.997175
804.008	1.84386
807.383	2.29738
810.757	3.9097
814.132	6.31276
817.507	11.1819
820.882	17.3216
824.257	12.105
827.631	5.14561
831.006	2.3633
834.381	2.18054
837.756	1.24969
841.131	0.927179
844.505	0.846172
847.88	0.331228
851.255	0.499952
854.63	1.01158
858.005	0.839872
861.38	0.868631
864.754	1.08139
868.129	0.350512
871.504	0.214342
874.879	0.099083
878.254	0.053268
881.629	0.136915
885.003	0.381966
888.378	0.097418
891.753	1.75872
895.128	2.44527
898.503	5.5189
901.877	8.66478
905.252	16.7019
908.627	22.2586
912.002	38.7122
915.377	75.0427
918.751	125.386
922.126	292.897
925.501	616.627
928.876	291.997
932.251	82.1884
935.625	33.4824
939	16.9624
942.375	10.4038
945.75	5.72596
949.125	3.80873
952.5	2.20366
955.875	1.4615
959.249	0.971634
962.624	0.390852
965.999	0.663431
969.374	0.174053
972.749	0.185905
976.123	0.034719
979.498	0.726269
982.873	0.087618
986.248	0.450932
989.623	0.116091
992.997	0.026819
996.372	0.292725
999.747	0.146357
1003.12	0.205379
1006.5	0.331812
1009.87	0.301352
1013.25	0.406116
1016.62	0.632473
1020	0.719585
1023.37	0.757721
1026.75	0.438066
1030.12	0.928772
1033.49	1.3343
1036.87	1.0408
1040.24	1.30726
1043.62	0.825958
1046.99	0.975849
1050.37	1.25217
1053.74	1.31671
1057.12	1.33212
1060.49	0.811161
1063.87	1.27591
1067.24	2.3969
1070.62	2.58827
1073.99	2.95912
1077.37	4.70193
1080.74	7.98802
1084.12	25.7958
1087.49	20.0685
1090.87	3.88048
1094.24	1.16993
1097.62	0.23864
1100.99	0.65786
1104.37	0.147696
1107.74	1.02299
1111.12	0.835625
1114.49	0.39924
1117.87	0.879774
1121.24	1.09688
1124.62	0.895262
1127.99	0.751377
1131.37	0.103979
1134.74	0.375122
1138.12	0.579136
1141.49	0.475094
1144.86	0.686441
1148.24	0.816351
1151.61	0.622158
1154.99	1.03283
1158.36	0.706657
1161.74	0.414476
1165.11	0.766859
1168.49	0.375141
1171.86	0.808411
1175.24	0.803637
1178.61	0.256147
1181.99	0.233356
1185.36	0.63199
1188.74	0.061634
1192.11	0.1642
1195.49	0.172955
1198.86	0.24159
1202.24	0.126606
1205.61	0.503035
1208.99	0.365664
1212.36	0.856928
1215.73	1.27361
1219.11	1.27588
1222.48	0.759439
1225.86	0.948135
1229.23	0.628895
1232.61	0.919231
1235.98	0.635798
1239.36	1.24902
1242.73	0.692949
1246.11	1.81986
1249.48	1.80794
1252.86	3.15891
1256.23	3.99076
1259.61	4.40663
1262.98	4.99631
1266.36	3.37416
1269.73	2.49999
1273.11	2.56865
1276.48	1.52756
1279.86	0.081669
