Measurement: Raman, 532 nm, unoriented, Raman Data Processed
Mineral: Tetrawickmanite
Rruff sample: R170046
Ideal chemistry: Mn^2+^Sn^4+^(OH)_6_
Locality: Mina San Martin, Sombrerete, Zacatecas, Mexico
Source: Peter Megaw
Description: Yellow cubic or pseudo-octahedral crystals on quartz, associated with colorless cubic fluorite
Raman shift (cm-1)	intensity
91.5115	0
94.8863	5.22224
98.2612	6.90076
101.636	2.16333
105.011	0.898193
108.386	11.0856
111.76	0.182007
115.135	8.44339
118.51	21.7969
121.885	28.518
125.26	58.4699
128.635	76.0009
132.009	61.1516
135.384	50.8758
138.759	68.3942
142.134	88.3939
145.509	108.506
148.883	126.603
152.258	119.206
155.633	109.455
159.008	84.4548
162.383	77.5953
165.757	65.7098
169.132	61.5301
172.507	65.237
175.882	70.093
179.257	82.8757
182.632	79.7517
186.006	80.0916
189.381	76.1745
192.756	82.7063
196.131	90.7298
199.506	94.9905
202.881	89.0528
206.255	82.6246
209.63	74.1209
213.005	67.4696
216.38	55.9568
219.755	35.021
223.129	14.2789
226.504	0.59375
229.879	6.81006
233.254	10.9422
236.629	11.6492
240.004	4.17029
243.378	1.91305
246.753	16.6081
250.128	22.1978
253.503	32.6248
256.878	57.5512
260.252	96.6511
263.627	177.739
267.002	260.292
270.377	394.098
273.752	568.861
277.127	813.842
280.501	1127.06
283.876	1340.76
287.251	1154.78
290.626	827.563
294.001	596.694
297.375	450.089
300.75	352.706
304.125	272.336
307.5	186.915
310.875	120.351
314.25	69.8658
317.624	33.8711
320.999	10.395
324.374	8.43204
327.749	15.4561
331.124	22.3424
334.498	32.7581
337.873	43.1736
341.248	71.8567
344.623	119.101
347.998	190.398
351.373	276.31
354.747	364.094
358.122	438.443
361.497	485.445
364.872	529.388
368.247	537.35
371.621	512.802
374.996	477.513
378.371	407.221
381.746	318.71
385.121	235.919
388.495	155.284
391.87	104.301
395.245	69.698
398.62	44.1982
401.995	27.8596
405.37	14.1579
408.744	6.7618
412.119	1.56544
415.494	2.49513
418.869	4.66881
422.244	3.26279
425.618	0.512466
428.993	6.42661
432.368	22.3846
435.743	41.809
439.118	67.1558
442.493	92.8688
445.867	107.188
449.242	124.741
452.617	142.078
455.992	166.063
459.367	226.447
462.741	301.831
466.116	292.505
469.491	173.418
472.866	93.3024
476.241	53.3411
479.615	30.8682
482.99	16.5721
486.365	1.01917
489.74	8.9042
493.115	11.3434
496.49	11.2616
499.864	6.08472
503.239	5.86591
506.614	0.696259
509.989	2.61026
513.364	6.93561
516.739	12.1436
520.113	24.9223
523.488	38.5827
526.863	56.3302
530.238	77.851
533.613	93.637
536.987	119.764
540.362	138.746
543.737	171.953
547.112	199.804
550.487	242.257
553.861	296.498
557.236	367.8
560.611	461.219
563.986	581.947
567.361	773.723
570.736	1055.06
574.11	1517.9
577.485	2252.49
580.86	3356.48
584.235	4879.02
587.61	6735.9
590.985	8433.79
594.359	8674.1
597.734	6831.81
601.109	4407.79
604.484	2720.67
607.859	1724.95
611.233	1127.05
614.608	762.583
617.983	512.2
621.358	346.858
624.733	233.308
628.107	146.124
631.482	93.9717
634.857	58.993
638.232	34.8028
641.607	20.5726
644.982	7.75623
648.356	0.861908
651.731	0.545258
655.106	1.41562
658.481	2.16083
661.856	6.84274
665.231	8.33136
668.605	10.9274
671.98	4.4263
675.355	0.520813
678.73	8.09412
682.105	8.12955
685.479	8.00317
688.854	6.26727
692.229	5.01028
695.604	2.7569
698.979	5.98123
702.354	10.734
705.728	10.8093
709.103	16.1932
712.478	21.5541
715.853	24.4178
719.227	31.5626
722.602	35.87
725.977	39.5922
729.352	43.6277
732.727	46.8486
736.102	44.4805
739.476	44.3612
742.851	36.9657
746.226	32.5804
749.601	29.7292
752.976	23.423
756.351	20.5198
759.725	19.1145
763.1	16.0037
766.475	14.4244
769.85	13.0304
773.225	13.808
776.599	13.0969
779.974	13.7217
783.349	11.4635
786.724	10.415
790.099	10.1582
793.473	9.33186
796.848	7.94768
800.223	4.99304
803.598	6.05318
806.973	6.14934
810.348	5.07457
813.722	1.43922
817.097	1.66649
820.472	1.58266
823.847	2.1449
827.222	1.02489
830.597	2.53386
833.971	3.90221
837.346	6.84323
840.721	13.0087
844.096	17.2677
847.471	19.9403
850.846	27.3615
854.22	36.8028
857.595	50.8422
860.97	68.9058
864.345	85.8665
867.72	104.725
871.094	119.145
874.469	123.167
877.844	112.69
881.219	90.9999
884.594	66.0979
887.968	46.3291
891.343	33.7517
894.718	26.2046
898.093	20.109
901.468	15.6342
904.842	11.1349
908.217	4.54823
911.592	3.6206
914.967	2.20064
918.342	1.77913
921.717	1.38528
925.091	0.735168
928.466	0.601761
931.841	0.336197
935.216	1.30685
938.591	0.211761
941.966	0.047287
945.34	1.45465
948.715	2.27176
952.09	0.559784
955.465	1.38602
958.84	0.023605
962.214	1.7411
965.589	0.56456
968.964	0.311127
972.339	0.661285
975.714	2.05882
979.088	1.65639
982.463	0.395966
985.838	3.21037
989.213	1.21416
992.588	2.09595
995.963	1.65741
999.337	1.13527
1002.71	0.319412
1006.09	2.31102
1009.46	2.28982
1012.84	0.114166
1016.21	1.92741
1019.59	0.851807
1022.96	1.12172
1026.34	0.801575
1029.71	3.3029
1033.09	2.85135
1036.46	4.75514
1039.84	6.60616
1043.21	4.84712
1046.59	8.16786
1049.96	4.2888
1053.33	2.6465
1056.71	1.17641
1060.08	2.56662
1063.46	0.260986
1066.83	0.526001
1070.21	2.11459
1073.58	4.04225
1076.96	4.80894
1080.33	6.558
1083.71	10.9934
1087.08	12.8565
1090.46	13.789
1093.83	13.147
1097.21	15.5398
1100.58	17.6008
1103.96	20.7843
1107.33	18.2379
1110.71	18.9453
1114.08	19.2745
1117.46	18.6973
1120.83	19.5125
1124.21	20.386
1127.58	19.2738
1130.95	17.7243
1134.33	19.1741
1137.7	21.0699
1141.08	19.0407
1144.45	14.9728
1147.83	17.5458
1151.2	18.5489
1154.58	14.2181
1157.95	17.8144
1161.33	17.2351
1164.7	12.9577
1168.08	10.1167
1171.45	2.72444
1174.83	4.41266
1178.2	1.96564
1181.58	1.28168
1184.95	0.712799
1188.33	1.79648
1191.7	1.91812
1195.08	0.399246
1198.45	0.373978
1201.83	0.492966
1205.2	1.43324
1208.58	0.472687
1211.95	0.885376
1215.33	0.404816
1218.7	1.89887
1222.08	0.725235
1225.45	1.06873
1228.83	0.126907
1232.2	2.55592
1235.58	0.608551
1238.95	1.58882
1242.32	2.97028
1245.7	1.02272
1249.07	4.07272
1252.45	1.7825
1255.82	1.07236
1259.2	3.37341
1262.57	3.64197
1265.95	0.951767
1269.32	1.76726
1272.7	3.29736
1276.07	0.832428
1279.45	1.01152
1282.82	2.11105
1286.2	2.02776
1289.57	0.013474
1292.95	2.30313
1296.32	4.7348
1299.7	8.11238
