Measurement: Raman, 780 nm, unoriented, Raman Data Processed
Mineral: Tetrawickmanite
Rruff sample: R170046
Ideal chemistry: Mn^2+^Sn^4+^(OH)_6_
Locality: Mina San Martin, Sombrerete, Zacatecas, Mexico
Source: Peter Megaw
Description: Yellow cubic or pseudo-octahedral crystals on quartz, associated with colorless cubic fluorite
Raman shift (cm-1)	intensity
93.3674	0
96.7422	0.710052
100.117	3.08815
103.492	9.89247
106.867	8.81877
110.242	0.261917
113.616	1.5907
116.991	3.97218
120.366	6.18774
123.741	14.9354
127.116	21.9241
130.49	8.22757
133.865	2.76646
137.24	4.49083
140.615	9.91473
143.99	13.8901
147.364	16.258
150.739	12.6471
154.114	12.1053
157.489	10.6275
160.864	8.81202
164.239	6.29352
167.613	6.3437
170.988	5.49336
174.363	7.42855
177.738	8.92738
181.113	9.75665
184.488	12.8246
187.862	15.7188
191.237	18.6703
194.612	20.595
197.987	22.1025
201.362	23.2008
204.736	22.9376
208.111	20.2844
211.486	16.8098
214.861	13.3718
218.236	8.1292
221.611	3.45892
224.985	0.697838
228.36	1.59035
231.735	2.37887
235.11	0.575195
238.485	0.107048
241.859	1.10571
245.234	4.13921
248.609	5.03
251.984	7.27807
255.359	10.7946
258.733	18.0731
262.108	29.0087
265.483	40.4502
268.858	54.1868
272.233	78.1529
275.608	113.457
278.982	157.501
282.357	185.069
285.732	162.792
289.107	124.683
292.482	100.017
295.856	84.1546
299.231	74.5187
302.606	59.7072
305.981	40.8808
309.356	25.4485
312.731	14.784
316.105	7.20122
319.48	2.09364
322.855	0.947952
326.23	0.843864
329.605	1.77429
332.979	4.61949
336.354	7.66872
339.729	14.0066
343.104	25.5961
346.479	39.456
349.854	56.4159
353.228	75.933
356.603	87.4745
359.978	96.7445
363.353	100.392
366.728	98.9845
370.103	94.5451
373.477	85.4402
376.852	72.6669
380.227	55.6088
383.602	39.3486
386.977	27.1802
390.351	18.1472
393.726	13.1431
397.101	7.92668
400.476	5.48156
403.851	2.96635
407.226	2.49191
410.6	1.51794
413.975	0.307335
417.35	0.968102
420.725	1.26232
424.1	0.425377
427.474	1.09748
430.849	2.69326
434.224	5.82566
437.599	10.1268
440.974	14.7974
444.349	20.8232
447.723	28.1451
451.098	32.6229
454.473	39.5449
457.848	55.1163
461.223	80.3824
464.597	82.1433
467.972	47.6921
471.347	23.3972
474.722	12.3776
478.097	6.23255
481.471	3.0921
484.846	0.53791
488.221	1.34594
491.596	1.09606
494.971	0.953342
498.346	0.992363
501.72	0.25267
505.095	0.461193
508.47	0.451538
511.845	0.594135
515.22	0.281567
518.595	0.320972
521.969	1.36505
525.344	2.10603
528.719	2.80915
532.094	4.28471
535.469	5.82035
538.843	8.24175
542.218	10.6508
545.593	14.0597
548.968	18.9086
552.343	26.1581
555.717	33.4871
559.092	44.9631
562.467	59.6875
565.842	79.7314
569.217	112.71
572.592	162.55
575.966	240.323
579.341	351.174
582.716	497.971
586.091	698.4
589.466	909.204
592.841	958.404
596.215	767.844
599.59	503.579
602.965	310.833
606.34	198.048
609.715	129.759
613.089	87.0003
616.464	59.5127
619.839	39.4771
623.214	26.1979
626.589	17.191
629.963	11.5186
633.338	7.65075
636.713	5.00708
640.088	2.94659
643.463	1.64123
646.838	1.59951
650.212	0.801098
653.587	0.622719
656.962	0.569572
660.337	2.02056
663.712	1.15852
667.087	1.20899
670.461	0.940838
673.836	0.055614
677.211	1.25855
680.586	0.565399
683.961	1.23983
687.335	0.449844
690.71	0.551559
694.085	0.314411
697.46	0.479527
700.835	1.41209
704.21	1.0687
707.584	1.21471
710.959	2.19527
714.334	2.37001
717.709	3.04015
721.084	3.48406
724.458	3.66856
727.833	4.14648
731.208	4.18886
734.583	5.01588
737.958	4.2443
741.332	3.06773
744.707	2.95197
748.082	2.82385
751.457	2.26805
754.832	2.27961
758.207	1.84697
761.581	1.53715
764.956	0.906334
768.331	1.26735
771.706	1.19891
775.081	0.941948
778.455	1.06427
781.83	0.907818
785.205	0.788322
788.58	1.25507
791.955	0.959156
795.33	1.45301
798.704	1.23067
802.079	1.12309
805.454	2.26714
808.829	2.0478
812.204	0.674568
815.578	0.18663
818.953	0.298904
822.328	0.220165
825.703	0.547436
829.078	0.273304
832.453	0.779327
835.827	1.32553
839.202	1.70702
842.577	1.09339
845.952	2.60024
849.327	2.79834
852.702	3.19497
856.076	5.06652
859.451	6.24103
862.826	7.23419
866.201	9.28793
869.576	10.2454
872.95	10.9083
876.325	10.0703
879.7	7.93295
883.075	6.25307
886.45	3.99833
889.824	3.69254
893.199	1.9109
896.574	2.00786
899.949	1.27996
903.324	1.25498
906.698	0.661631
910.073	0.268866
913.448	0.142683
916.823	0.153185
920.198	0.159536
923.573	0.109848
926.947	0.118301
930.322	0.058664
933.697	0.058607
937.072	0.237711
940.447	0.404095
943.822	0.32519
947.196	0.115274
950.571	0.298174
953.946	0.025131
957.321	0.164179
960.696	0.472342
964.07	0.045952
967.445	0.350765
970.82	0.127228
974.195	0.619715
977.57	0.075994
980.945	0.395761
984.319	0.41548
987.694	0.151693
991.069	0.432203
994.444	0.451797
997.819	0.658907
1001.19	0.075689
1004.57	0.493542
1007.94	0.475483
1011.32	0.324175
1014.69	0.472858
1018.07	0.236
1021.44	0.064539
1024.82	0.390169
1028.19	0.654419
1031.57	0.608322
1034.94	0.751383
1038.32	0.669796
1041.69	1.35154
1045.07	0.844046
1048.44	0.908577
1051.82	0.915779
1055.19	0.735786
1058.57	0.299675
1061.94	0.606178
1065.32	0.540428
1068.69	0.293751
1072.07	0.056147
1075.44	1.17745
1078.81	0.901941
1082.19	2.03129
1085.56	1.88586
1088.94	1.86916
1092.31	2.2771
1095.69	2.28221
1099.06	2.46836
1102.44	1.82674
1105.81	2.43832
1109.19	2.42081
1112.56	1.84748
1115.94	1.34887
1119.31	1.83615
1122.69	1.95192
1126.06	1.29609
1129.44	0.876505
1132.81	1.18541
1136.19	1.38203
1139.56	1.76842
1142.94	1.59476
1146.31	1.67871
1149.68	1.68334
1153.06	2.40575
1156.43	3.18531
1159.81	2.13609
1163.18	1.09772
1166.56	0.260893
1169.93	0.797125
1173.31	0.141415
1176.68	0.153557
1180.06	0.114979
1183.43	0.363644
1186.81	0.439306
1190.18	0.03429
1193.56	0.220718
1196.93	0.17794
1200.31	0.380558
1203.68	0.061317
1207.06	0.184795
1210.43	0.436754
1213.81	0.441782
1217.18	0.20698
1220.56	0.334709
1223.93	0.760958
1227.31	0.771875
1230.68	1.36513
1234.06	1.04539
1237.43	1.14284
1240.81	0.439137
1244.18	0.402493
1247.56	0.500706
1250.93	0.286316
1254.31	0.280922
1257.68	0.087931
1261.05	0.156073
1264.43	0.37669
1267.8	0.528656
1271.18	0.042513
1274.55	0.201
1277.93	0.334137
1281.3	0.11706
