Measurement: Raman, 532 nm, unoriented, Raman Data Processed
Mineral: Thometzekite
Rruff sample: R130618
Ideal chemistry: Pb^2+^Cu^2+^_2_(As^5+^O_4_)_2_2H_2_O
Locality: Tsumeb mine, Tsumeb, Otjikoto Region, Namibia
Source: Mark N. Feinglos
Description: Light blue-green with unidentified deeper green material.
Raman shift (cm-1)	intensity
166.722	0
169.614	3.99121
172.507	19.9785
175.4	79.4453
178.293	93.8486
181.185	123.832
184.078	95.4692
186.971	68.2993
189.863	42.4219
192.756	16.8311
195.649	20.5278
198.542	21.5952
201.434	28.1484
204.327	15.771
207.22	21.6758
210.112	32.9565
213.005	85.46
215.898	118.571
218.79	100.564
221.683	98.7104
224.576	65.4443
227.469	57.4502
230.361	43.3062
233.254	80.918
236.147	87.4106
239.039	68.8643
241.932	28.7231
244.825	9.00195
247.717	6.19238
250.61	15.0366
253.503	7.06152
256.396	15.3911
259.288	12.5269
262.181	5.59912
265.074	4.86279
267.966	8.6416
270.859	3.23535
273.752	29.1392
276.644	29.7456
279.537	53.9605
282.43	78.1909
285.322	142.183
288.215	199.579
291.108	252.861
294.001	290.363
296.893	337.341
299.786	399.684
302.679	417.331
305.571	420.896
308.464	396.38
311.357	379.986
314.25	397.522
317.142	400.39
320.035	421.649
322.928	448.237
325.82	464.907
328.713	464.325
331.606	496.964
334.498	535.041
337.391	570.672
340.284	609.986
343.176	613.29
346.069	626.834
348.962	631.451
351.855	636.312
354.747	598.804
357.64	526.433
360.533	465.432
363.425	373.356
366.318	291.856
369.211	193.588
372.103	124.368
374.996	39.0776
377.889	6.19092
380.782	27.1172
383.674	18.8105
386.567	15.2461
389.46	78.8223
392.352	133.182
395.245	214.631
398.138	267.277
401.031	270.412
403.923	215.338
406.816	133.058
409.709	96.9033
412.601	51.7285
415.494	16.5713
418.387	9.62012
421.279	8.5957
424.172	11.2549
427.065	49.1435
429.957	135.029
432.85	254.46
435.743	398.731
438.636	507.16
441.528	312.17
444.421	246.475
447.314	259.533
450.206	284.958
453.099	225.241
455.992	190.421
458.885	153.023
461.777	105.934
464.67	56.6397
467.563	42.5029
470.455	43.0371
473.348	77.6416
476.241	145.545
479.133	192.158
482.026	288.424
484.919	408.833
487.812	567.122
490.704	679.767
493.597	785.231
496.49	816.324
499.382	807.061
502.275	766.07
505.168	691.312
508.06	569.023
510.953	459.094
513.846	350.075
516.739	230.755
519.631	153.671
522.524	56.4443
525.417	36.3818
528.309	3.43848
531.202	14.6826
534.095	5.73633
536.987	0.749023
539.88	26.2441
542.773	19.0898
545.665	1.54883
548.558	3.08203
551.451	10.7207
554.344	35.7432
557.236	48.3301
560.129	37.1953
563.022	38.3906
565.914	56.1074
568.807	57.7422
571.7	68.3193
574.592	101.65
577.485	93.167
580.378	92.3144
583.271	117.571
586.163	126.913
589.056	160.507
591.949	171.811
594.841	166.683
597.734	227.185
600.627	244.961
603.519	251.763
606.412	227.093
609.305	215.74
612.198	185.113
615.09	205.08
617.983	197.592
620.876	213.136
623.768	222.145
626.661	193.329
629.554	173.373
632.447	143.188
635.339	152.334
638.232	113.661
641.125	125.43
644.017	88.5674
646.91	97.3389
649.803	94.8975
652.695	104.228
655.588	85.04
658.481	73.6504
661.374	57.3711
664.266	54.4658
667.159	52.542
670.052	29.5488
672.944	14.2559
675.837	1.53711
678.73	4.46973
681.622	0.90625
684.515	5.07617
687.408	1.97266
690.301	8.2627
693.193	5.8584
696.086	31.8496
698.979	45.0713
701.871	19.5469
704.764	0.666016
707.657	7.60156
710.549	43.2344
713.442	33.6728
716.335	53.0303
719.227	70.5225
722.12	99.8955
725.013	153.758
727.906	151.338
730.798	143.487
733.691	109.779
736.584	99.2666
739.476	75.2012
742.369	17.6631
745.262	18.2695
748.154	50.373
751.047	27.8877
753.94	56.792
756.833	54.8633
759.725	0.955078
762.618	39.294
765.511	118.778
768.403	180.257
771.296	300.385
774.189	412.825
777.082	518.996
779.974	632.987
782.867	768.163
785.76	887.927
788.652	1073.91
791.545	1271.03
794.438	1380.41
797.33	1477.82
800.223	1525.19
803.116	1587.28
806.009	1668.93
808.901	1766.87
811.794	1880.88
814.687	2060.8
817.579	2244.62
820.472	2602.38
823.365	3146.97
826.257	3862.73
829.15	4759.3
832.043	5472.92
834.936	5881.48
837.828	5894.22
840.721	5623.26
843.614	5249.29
846.506	4784.69
849.399	4298.4
852.292	3744.67
855.184	3178.28
858.077	2631.9
860.97	2189.43
863.863	1815.97
866.755	1471.02
869.648	1185.71
872.541	878.196
875.433	663.151
878.326	488.06
881.219	370.959
884.111	245.595
887.004	188.857
889.897	79.4863
892.79	46.1309
895.682	18.04
898.575	22.8887
901.468	5.17871
904.36	30.4707
907.253	15.8203
910.146	26.2109
913.038	26.376
915.931	17.0391
918.824	5.08496
921.717	2.68457
924.609	28.0625
927.502	50.9326
930.395	45.9199
933.287	28.458
936.18	20.0957
939.073	23.7773
941.966	71.3379
944.858	88.8603
947.751	66.5293
950.644	41.083
953.536	105.577
956.429	127.289
959.322	231.058
962.214	332.703
965.107	475.919
968	756.912
970.893	1199.09
973.785	1883.61
976.678	2666.56
979.571	2725.92
982.463	2438.09
985.356	1995.75
988.249	1365.88
991.141	779.498
994.034	416.535
996.927	251.272
999.819	123.477
1002.71	67.4512
1005.61	70.7617
1008.5	75.9981
1011.39	24.6055
1014.28	49.6348
1017.18	40.3008
1020.07	31.5703
1022.96	9.68555
1025.85	43.748
1028.75	65.75
1031.64	42.207
1034.53	61.3574
1037.42	77.9531
1040.32	85.5215
1043.21	169.967
1046.1	180.391
1048.99	169.699
1051.89	222.463
1054.78	202.041
1057.67	180.414
1060.57	183.357
1063.46	171.1
1066.35	131.707
1069.24	120.912
1072.14	96.1758
1075.03	91.2285
1077.92	94.7949
1080.82	44.9258
1083.71	44.8926
1086.6	63.3574
1089.49	87.5898
1092.39	54.2949
1095.28	8.37891
1098.17	2.27344
1101.06	3.55664
1103.96	34.6641
1106.85	6.89453
1109.74	30.9199
1112.63	0.318359
1115.53	23.1953
1118.42	42.8652
1121.31	10.5977
1124.21	11.8457
1127.1	8.03906
1129.99	2.55469
1132.88	23.7148
1135.78	31.5996
1138.67	64.9922
1141.56	129.664
1144.45	110.686
1147.35	126.629
1150.24	137.164
1153.13	181.426
1156.03	232.574
1158.92	256.041
1161.81	275.156
1164.7	242.182
1167.6	258.143
1170.49	247.201
1173.38	197.772
1176.27	173.045
1179.17	194.185
1182.06	130.348
1184.95	162.156
1187.85	134.549
1190.74	170.69
1193.63	189.045
1196.52	190.938
1199.42	136.865
1202.31	124.082
1205.2	142.654
1208.09	122.486
1210.99	154.035
1213.88	132.441
1216.77	105.008
1219.66	141.148
1222.56	126.478
1225.45	112.484
1228.34	97.7402
1231.24	83.2852
1234.13	70.8652
1237.02	49.8906
1239.91	67.1387
1242.81	69.043
1245.7	51.6914
1248.59	61.6582
1251.48	83.2676
1254.38	109.459
1257.27	102.893
1260.16	113.703
1263.06	53.3008
1265.95	36.0312
1268.84	60.6055
1271.73	2.38281
1274.63	0.232422
1277.52	6.96484
1280.41	10.2461
1283.3	2.61133
1286.2	56.293
1289.09	63.8145
1291.98	60.9023
1294.88	56.6016
1297.77	28.377
1300.66	0
