Measurement: Raman, 532 nm, unoriented, Raman Data Processed
Mineral: Tundrite-(Ce)
Rruff sample: R130563
Ideal chemistry: Na_2_Ce^3+^_2_Ti^4+^O_2_SiO_4_(CO_3_)_2_
Locality: Poudrette quarry, Mount St. Hilaire, Quebec, Canada
Source: Don Doell
Description: Yellow bladed crystals, associated with white orthoclase
Raman shift (cm-1)	intensity
155.151	0
158.044	64.2822
160.936	81.6609
163.829	71.7046
166.722	43.0237
169.614	20.1365
172.507	20.8496
175.4	8.57507
178.293	6.43213
181.185	41.338
184.078	87.3146
186.971	115.561
189.863	111.754
192.756	121.56
195.649	99.9322
198.542	57.9237
201.434	25.665
204.327	0.542603
207.22	20.4473
210.112	32.5289
213.005	34.5861
215.898	20.5842
218.79	3.40063
221.683	28.0859
224.576	75.5275
227.469	133.782
230.361	210.162
233.254	293.746
236.147	357.838
239.039	394.286
241.932	386.516
244.825	367.143
247.717	368.572
250.61	395.858
253.503	437.372
256.396	447.768
259.288	422.033
262.181	387.847
265.074	368.119
267.966	361.891
270.859	359.544
273.752	381.392
276.644	475.404
279.537	641.087
282.43	868.934
285.322	1168.53
288.215	1496.94
291.108	1815.97
294.001	2057.15
296.893	2125.96
299.786	1936.17
302.679	1536.95
305.571	1101.57
308.464	770.692
311.357	579.384
314.25	496.513
317.142	484.229
320.035	525.206
322.928	626.677
325.82	765.364
328.713	923.702
331.606	1071.65
334.498	1229.1
337.391	1313.88
340.284	1242.88
343.176	1022.82
346.069	745.132
348.962	500.418
351.855	326.68
354.747	191.298
357.64	84.1492
360.533	13.1838
363.425	34.3425
366.318	48.081
369.211	50.1851
372.103	26.4165
374.996	20.304
377.889	93.2217
380.782	191.033
383.674	304.5
386.567	392.66
389.46	410.016
392.352	392.901
395.245	408.508
398.138	437.197
401.031	466.86
403.923	501.914
406.816	543.496
409.709	612.294
412.601	688.105
415.494	781.457
418.387	865.697
421.279	927.312
424.172	953.302
427.065	942.923
429.957	902.798
432.85	827.849
435.743	704.418
438.636	571.871
441.528	450.485
444.421	342.28
447.314	260.594
450.206	196.056
453.099	146.81
455.992	113.409
458.885	88.314
461.777	55.6428
464.67	41.0736
467.563	23.7063
470.455	14.4268
473.348	5.24146
476.241	3.88391
479.133	0.593628
482.026	2.44519
484.919	1.17041
487.812	0.185791
490.704	5.50024
493.597	1.23498
496.49	0.995117
499.382	0.444214
502.275	0.241333
505.168	0.540039
508.06	4.4801
510.953	1.2041
513.846	10.4386
516.739	29.7404
519.631	38.1268
522.524	59.6676
525.417	81.5367
528.309	102.137
531.202	135.14
534.095	163.071
536.987	173.417
539.88	187.367
542.773	226.781
545.665	281.269
548.558	358.102
551.451	455.262
554.344	549.167
557.236	619.425
560.129	583.32
563.022	457.573
565.914	308.656
568.807	201.457
571.7	129.301
574.592	83.2385
577.485	50.3449
580.378	32.6379
583.271	17.5996
586.163	7.16736
589.056	0.883423
591.949	5.33044
594.841	13.2225
597.734	10.1898
600.627	9.46435
603.519	1.30273
606.412	1.10547
609.305	4.573
612.198	3.93677
615.09	10.6168
617.983	12.7274
620.876	10.6429
623.768	9.23657
626.661	11.8016
629.554	20.3247
632.447	35.1951
635.339	56.5695
638.232	83.4585
641.125	114.623
644.017	163.665
646.91	217.555
649.803	293.554
652.695	374.479
655.588	462.144
658.481	559.746
661.374	656.326
664.266	735.735
667.159	810.019
670.052	848.039
672.944	858.193
675.837	850.139
678.73	835.852
681.622	822.896
684.515	799.98
687.408	790.132
690.301	792.016
693.193	779.867
696.086	653.696
698.979	580.217
701.871	576.261
704.764	554.721
707.657	471.644
710.549	466.303
713.442	499.218
716.335	553.946
719.227	490.333
722.12	397.425
725.013	313.648
727.906	265.513
730.798	232.596
733.691	198.349
736.584	168.903
739.476	137.894
742.369	109.995
745.262	83.6271
748.154	66.3348
751.047	50.0542
753.94	32.9365
756.833	19.4301
759.725	14.408
762.618	0.117432
765.511	3.03479
768.403	7.86194
771.296	6.70361
774.189	5.34412
777.082	7.4967
779.974	7.73584
782.867	6.54565
785.76	8.65845
788.652	3.578
791.545	1.47852
794.438	5.9054
797.33	11.569
800.223	18.8914
803.116	23.4713
806.009	35.7884
808.901	39.9678
811.794	56.9717
814.687	64.3601
817.579	75.8906
820.472	90.9163
823.365	100.098
826.257	108.523
829.15	111.69
832.043	106.907
834.936	107.323
837.828	108.417
840.721	98.7714
843.614	87.9255
846.506	84.2908
849.399	83.4831
852.292	87.7745
855.184	72.8092
858.077	82.1433
860.97	91.5349
863.863	83.9086
866.755	90.364
869.648	85.2626
872.541	55.4309
875.433	30.7953
878.326	6.8971
881.219	0.836792
884.111	0.152344
887.004	13.1606
889.897	30.3294
892.79	68.9905
895.682	112.004
898.575	182.063
901.468	257.346
904.36	347.21
907.253	437.067
910.146	499.38
913.038	513.168
915.931	482.557
918.824	407.082
921.717	321.793
924.609	235.584
927.502	180.26
930.395	142.808
933.287	134.036
936.18	153.669
939.073	213.391
941.966	300.26
944.858	396.822
947.751	429.49
950.644	363.969
953.536	244.163
956.429	151.805
959.322	93.5139
962.214	55.3669
965.107	27.1641
968	11.8419
970.893	3.49121
973.785	0.952637
976.678	1.86939
979.571	2.19751
982.463	8.98242
985.356	7.07593
988.249	4.25244
991.141	3.36182
994.034	6.02649
996.927	14.8782
999.819	16.04
1002.71	25.8602
1005.61	26.2346
1008.5	27.2621
1011.39	27.6853
1014.28	29.7655
1017.18	33.4996
1020.07	40.5991
1022.96	33.4799
1025.85	42.3103
1028.75	44.5361
1031.64	36.3033
1034.53	34.3699
1037.42	26.83
1040.32	23.3674
1043.21	16.4123
1046.1	16.8383
1048.99	21.891
1051.89	37.5795
1054.78	82.7533
1057.67	177.47
1060.57	303.42
1063.46	556.533
1066.35	787.289
1069.24	624.925
1072.14	501.368
1075.03	657.366
1077.92	1040.63
1080.82	1111.46
1083.71	448.694
1086.6	136.329
1089.49	61.4601
1092.39	39.7057
1095.28	26.3009
1098.17	23.178
1101.06	16.5855
1103.96	18.5861
1106.85	15.0939
1109.74	14.4625
1112.63	16.0821
1115.53	14.3366
1118.42	9.6499
1121.31	5.56628
1124.21	3.05249
1127.1	0.866577
1129.99	0.548096
1132.88	1.33362
1135.78	1.68384
1138.67	1.73926
1141.56	1.59766
1144.45	0.834229
1147.35	1.18542
1150.24	4.08215
1153.13	0.924927
1156.03	0.406128
1158.92	9.31519
1161.81	8.42725
1164.7	10.654
1167.6	10.3838
1170.49	16.4906
1173.38	15.5669
1176.27	18.3347
1179.17	21.6721
1182.06	23.8846
1184.95	28.5458
1187.85	28.4685
1190.74	33.3763
1193.63	36.1715
1196.52	40.1741
1199.42	38.8355
1202.31	40.7408
1205.2	44.2241
1208.09	48.6267
1210.99	51.1679
1213.88	53.7305
1216.77	59.3879
1219.66	63.8691
1222.56	68.8311
1225.45	71.2554
1228.34	65.5958
1231.24	68.2142
1234.13	78.5708
1237.02	77.1346
1239.91	82.4829
1242.81	85.5431
1245.7	91.2025
1248.59	89.6481
1251.48	91.3882
1254.38	91.9753
1257.27	91.8607
1260.16	93.8166
1263.06	88.1837
1265.95	79.2522
1268.84	79.0641
1271.73	71.0554
1274.63	66.3458
1277.52	57.4625
1280.41	48.1245
1283.3	38.9685
1286.2	30.4382
1289.09	21.1715
1291.98	10.7396
1294.88	1.33057
1297.77	0.497314
1300.66	0
