Measurement: Raman, 532 nm, unoriented, Raman Data Processed
Mineral: Tundrite-(Nd)
Rruff sample: R130565
Ideal chemistry: Na_2_Nd^3+^_2_Ti^4+^O_2_(SiO_4_)(CO_3_)_2_
Locality: Ilimaussaq complex, Narsaq, Kitaa, Greenland
Source: Rock Currier
Description: Pale tan prismatic crystals associated with green to dark-green prismatic aegirine, white microcline, and pinkish fluorite.
Raman shift (cm-1)	intensity
118.992	0
122.367	15.0655
125.742	42.2556
129.117	72.7301
132.492	98.869
135.866	142.649
139.241	209.185
142.616	228.968
145.991	255.338
149.365	284.018
152.74	283.716
156.115	238.847
159.49	156.746
162.865	86.2106
166.24	38.6956
169.614	19.8592
172.989	26.3797
176.364	31.4844
179.739	28.6873
183.114	14.8868
186.488	9.67059
189.863	15.9854
193.238	29.3594
196.613	35.6841
199.988	26.4352
203.363	9.31494
206.737	3.34583
210.112	0.407593
213.487	0.373718
216.862	7.97632
220.237	16.8035
223.612	16.93
226.986	2.90295
230.361	11.1696
233.736	33.5707
237.111	61.561
240.486	84.0685
243.86	103.305
247.235	125.87
250.61	161.321
253.985	205.318
257.36	249.447
260.735	293.409
264.109	317.25
267.484	308.499
270.859	260.816
274.234	212.765
277.609	182.436
280.983	182.048
284.358	200.316
287.733	227.439
291.108	270.739
294.483	320.012
297.858	374.753
301.232	388.54
304.607	338.029
307.982	243.73
311.357	166.238
314.732	122.019
318.106	103.445
321.481	105.184
324.856	120.865
328.231	147.868
331.606	178.522
334.981	215.428
338.355	232.549
341.73	222.188
345.105	170.918
348.48	111.868
351.855	63.8507
355.229	32.297
358.604	10.3265
361.979	6.30835
365.354	12.4012
368.729	12.4695
372.103	4.37763
375.478	6.55078
378.853	27.0121
382.228	54.7519
385.603	87.6506
388.978	112.564
392.352	118.74
395.727	125.445
399.102	134.731
402.477	147.281
405.852	154.498
409.226	174.666
412.601	195.52
415.976	225.468
419.351	252.14
422.726	262.904
426.101	252.836
429.475	236.187
432.85	197.357
436.225	164.691
439.6	127.174
442.975	95.1747
446.349	73.0342
449.724	65.1562
453.099	59.7294
456.474	41.9105
459.849	28.1978
463.224	29.2414
466.598	43.6888
469.973	74.5548
473.348	107.584
476.723	93.4024
480.098	37.0877
483.473	15.634
486.847	2.0274
490.222	9.73938
493.597	4.55054
496.972	13.372
500.347	45.9682
503.721	91.4902
507.096	158.782
510.471	231.417
513.846	208.708
517.221	93.4277
520.596	27.6824
523.97	3.1062
527.345	0.544861
530.72	10.5474
534.095	19.9412
537.47	25.7091
540.844	19.9043
544.219	15.2451
547.594	22.4581
550.969	37.8698
554.344	61.8784
557.718	79.5316
561.093	74.764
564.468	46.0619
567.843	19.0064
571.218	8.50079
574.592	0.945801
577.967	0.975037
581.342	1.95062
584.717	2.9726
588.092	2.84601
591.467	0.004944
594.841	1.19751
598.216	3.19403
601.591	6.22534
604.966	13.4896
608.341	17.2433
611.716	21.6111
615.09	25.7145
618.465	24.9131
621.84	19.0118
625.215	10.7957
628.59	2.44019
631.964	0.35614
635.339	1.70209
638.714	1.22961
642.089	13.7394
645.464	27.8716
648.838	55.8167
652.213	83.095
655.588	114.982
658.963	145.006
662.338	178.278
665.713	207.553
669.087	223.481
672.462	226.573
675.837	218.671
679.212	203.829
682.587	186.487
685.962	167.531
689.336	150.254
692.711	133.531
696.086	107.922
699.461	89.1656
702.836	79.5961
706.21	67.6424
709.585	61.9846
712.96	75.3627
716.335	93.8492
719.71	102.576
723.085	92.8586
726.459	81.9636
729.834	69.5597
733.209	58.1251
736.584	43.096
739.959	33.727
743.333	30.7819
746.708	26.6381
750.083	20.8643
753.458	10.0273
756.833	3.98218
760.207	0.473633
763.582	1.04627
766.957	2.01288
770.332	3.69617
773.707	3.55273
777.082	1.32825
780.456	1.31787
783.831	1.49072
787.206	2.93201
790.581	2.21185
793.956	5.69702
797.33	9.51294
800.705	11.4122
804.08	17.9872
807.455	23.9315
810.83	28.0757
814.205	32.305
817.579	32.2117
820.954	38.8709
824.329	42.7753
827.704	50.2756
831.079	58.0454
834.453	65.6941
837.828	78.93
841.203	87.9479
844.578	96.0367
847.953	103.05
851.328	116.035
854.702	98.6213
858.077	73.5748
861.452	56.9995
864.827	58.6921
868.202	58.6357
871.577	41.5045
874.951	24.9291
878.326	11.2157
881.701	0.474731
885.076	1.25653
888.451	0.624573
891.825	2.99219
895.2	13.5577
898.575	26.2643
901.95	43.3431
905.325	61.7386
908.699	73.307
912.074	67.6575
915.449	50.9606
918.824	31.7537
922.199	16.4013
925.573	4.99347
928.948	0.185547
932.323	1.25616
935.698	8.17963
939.073	23.9542
942.448	39.0889
945.822	56.462
949.197	63.1661
952.572	48.5687
955.947	29.9794
959.322	18.155
962.697	9.30164
966.071	5.41553
969.446	0.151123
972.821	1.1651
976.196	0.104919
979.571	0.64801
982.945	1.0437
986.32	0.775452
989.695	1.86816
993.07	0.946838
996.445	1.14465
999.819	1.15991
1003.19	0.933044
1006.57	0.530396
1009.94	1.55798
1013.32	1.53619
1016.69	0.216187
1020.07	0.325134
1023.44	0.299316
1026.82	5.33929
1030.19	3.37775
1033.57	4.32324
1036.94	5.01202
1040.32	7.9779
1043.69	14.2941
1047.07	20.3751
1050.44	31.3992
1053.82	53.5051
1057.19	87.24
1060.57	131.302
1063.94	188.231
1067.32	220.403
1070.69	157.15
1074.07	142.668
1077.44	190.051
1080.82	217.575
1084.19	78.3889
1087.57	13.605
1090.94	7.14624
1094.31	1.14111
1097.69	3.09833
1101.06	2.57916
1104.44	3.42383
1107.81	7.24457
1111.19	10.4174
1114.56	15.5554
1117.94	23.3232
1121.31	28.7009
1124.69	25.3582
1128.06	20.1644
1131.44	16.6168
1134.81	14.5165
1138.19	15.451
1141.56	12.1766
1144.94	6.6676
1148.31	1.8717
1151.69	2.45129
1155.06	0.801208
1158.44	0.780518
1161.81	0.082092
1165.19	0.384216
1168.56	0.195374
1171.93	1.43365
1175.31	1.9281
1178.68	1.79138
1182.06	2.99896
1185.43	4.07111
1188.81	5.70331
1192.18	6.58783
1195.56	7.63855
1198.93	6.2533
1202.31	7.961
1205.68	6.79205
1209.06	7.74731
1212.43	9.44342
1215.81	8.34271
1219.18	10.0225
1222.56	11.1494
1225.93	10.7672
1229.31	13.181
1232.68	13.4343
1236.06	11.5317
1239.43	13.6287
1242.81	13.308
1246.18	13.757
1249.56	15.454
1252.93	14.6375
1256.31	19.378
1259.68	15.7635
1263.06	14.9424
1266.43	13.3624
1269.81	15.814
1273.18	13.7232
1276.56	10.3452
1279.93	9.61993
1283.3	7.66779
1286.68	6.53754
1290.05	4.68713
1293.43	3.34485
1296.8	0.9552
1300.18	0.001587
