Measurement: Raman, 532 nm, unoriented, Raman Data Processed
Mineral: Tundrite-(Ce)
Rruff sample: R130564
Ideal chemistry: Na_2_Ce^3+^_2_Ti^4+^O_2_SiO_4_(CO_3_)_2_
Locality: Ilimaussaq complex, Narsaq, Kitaa, Greenland
Source: Rock Currier
Description: Aggregates of acicular or bladed yellow crystals associated with albite and aegirine
Raman shift (cm-1)	intensity
151.776	0
154.669	21.5812
157.561	31.1561
160.454	31.6797
163.347	30.9263
166.24	22.5842
169.132	13.2681
172.025	8.55957
174.918	0.347473
177.81	5.49445
180.703	22.027
183.596	26.6938
186.488	29.321
189.381	22.8222
192.274	18.0871
195.167	19.712
198.059	9.80719
200.952	5.58429
203.845	5.32019
206.737	10.371
209.63	13.2437
212.523	6.36108
215.416	2.61523
218.308	2.4696
221.201	4.51856
224.094	13.4468
226.986	27.1755
229.879	48.9089
232.772	69.2511
235.664	94.9148
238.557	122.426
241.45	141.994
244.343	159.762
247.235	177.723
250.128	198.894
253.021	217.829
255.913	242.284
258.806	262.777
261.699	280.415
264.591	280.004
267.484	266.43
270.377	235.776
273.27	212.45
276.162	197.376
279.055	205.517
281.948	227.22
284.84	275.873
287.733	329.326
290.626	391.085
293.519	450.862
296.411	500.859
299.304	514.378
302.197	480.595
305.089	403.572
307.982	322.417
310.875	258.006
313.767	218.149
316.66	200.032
319.553	194.582
322.445	211.722
325.338	229.869
328.231	262.68
331.124	292.243
334.016	317.967
336.909	330.801
339.802	314.354
342.694	273.005
345.587	214.4
348.48	153.403
351.373	97.9227
354.265	56.8948
357.158	26.8831
360.051	4.77344
362.943	11.0414
365.836	16.5639
368.729	17.2357
371.621	8.96997
374.514	7.92481
377.407	32.8321
380.3	63.8016
383.192	98.1812
386.085	134.684
388.978	156.133
391.87	158.168
394.763	161.402
397.656	163.833
400.548	172.547
403.441	183.973
406.334	196.571
409.226	218.37
412.119	239.609
415.012	260.803
417.905	277.063
420.797	287.922
423.69	287.023
426.583	277.966
429.475	258.613
432.368	234.275
435.261	200.712
438.154	171.061
441.046	133.424
443.939	102.238
446.832	75.2169
449.724	52.8328
452.617	39.7025
455.51	28.3557
458.402	22.8508
461.295	18.831
464.188	13.8007
467.08	9.8865
469.973	4.35422
472.866	1.16602
475.759	0.529144
478.651	0.821411
481.544	0.241516
484.437	3.5549
487.329	4.61261
490.222	7.42068
493.115	9.24884
496.007	6.19577
498.9	6.97342
501.793	3.43079
504.686	0.795898
507.578	0.511475
510.471	2.31857
513.364	3.0929
516.256	2.80719
519.149	2.44971
522.042	0.302795
524.934	3.17865
527.827	5.26779
530.72	14.127
533.613	16.4908
536.505	19.1239
539.398	18.583
542.291	22.4976
545.183	37.4116
548.076	55.1681
550.969	80.8639
553.861	108.44
556.754	133.976
559.647	142.93
562.54	132.797
565.432	113.575
568.325	93.2139
571.218	80.8276
574.11	69.5248
577.003	66.1128
579.896	61.5723
582.788	61.3972
585.681	60.3249
588.574	57.8176
591.467	57.3158
594.359	55.0458
597.252	55.6453
600.145	54.4214
603.037	53.1225
605.93	51.0292
608.823	50.0038
611.716	43.3424
614.608	37.5695
617.501	30.6156
620.394	23.1357
623.286	14.6555
626.179	5.7175
629.072	0.255035
631.964	5.44324
634.857	5.36328
637.75	4.18375
640.643	2.67358
643.535	9.18536
646.428	19.0235
649.321	33.0208
652.213	50.8124
655.106	69.3914
657.999	89.2925
660.891	109.251
663.784	126.769
666.677	145.265
669.569	157.014
672.462	164.388
675.355	168.523
678.248	169.574
681.14	171.88
684.033	170.391
686.926	170.888
689.818	172.268
692.711	167.618
695.604	151.958
698.496	133.509
701.389	123.744
704.282	115.881
707.175	106.724
710.067	111.924
712.96	126.707
715.853	154.675
718.745	174.004
721.638	175.87
724.531	172.066
727.423	155.926
730.316	132.816
733.209	110.711
736.102	80.4332
738.994	54.6555
741.887	37.5603
744.78	27.1344
747.672	19.7189
750.565	14.5862
753.458	9.97836
756.351	4.68378
759.243	2.85983
762.136	1.5061
765.029	0.812744
767.921	1.70093
770.814	2.63287
773.707	3.42361
776.599	1.96542
779.492	2.12527
782.385	0.931335
785.278	1.28699
788.17	1.71445
791.063	1.711
793.956	3.41128
796.848	4.76694
799.741	6.393
802.634	8.05969
805.526	10.7773
808.419	15.3469
811.312	19.1244
814.205	24.4157
817.097	31.5397
819.99	36.4735
822.883	41.4994
825.775	46.1045
828.668	51.5573
831.561	55.9904
834.453	60.8926
837.346	65.8955
840.239	69.9235
843.132	74.3808
846.024	79.5818
848.917	83.128
851.81	83.4263
854.702	70.6891
857.595	61.5996
860.488	45.178
863.38	37.8774
866.273	35.6427
869.166	38.5656
872.059	34.9954
874.951	24.6375
877.844	16.8584
880.737	8.46921
883.629	2.9378
886.522	1.2814
889.415	1.19788
892.308	0.806152
895.2	7.00824
898.093	14.7463
900.986	24.9533
903.878	36.87
906.771	49.2014
909.664	59.4329
912.556	56.4327
915.449	51.7342
918.342	38.54
921.235	23.1625
924.127	14.1964
927.02	8.18225
929.913	6.3223
932.805	9.31018
935.698	16.8719
938.591	25.3382
941.483	37.6688
944.376	47.9381
947.269	56.6251
950.162	58.6911
953.054	56.264
955.947	43.4516
958.84	34.5573
961.732	26.9424
964.625	19.39
967.518	15.1225
970.41	10.6255
973.303	10.5752
976.196	9.10933
979.088	7.10738
981.981	5.61009
984.874	4.20154
987.767	2.93079
990.659	2.20662
993.552	0.758804
996.445	0.746704
999.337	0.436172
1002.23	0.722031
1005.12	0.797668
1008.02	0.415466
1010.91	0.693909
1013.8	0.40387
1016.69	0.278305
1019.59	1.80824
1022.48	3.50183
1025.37	4.44453
1028.26	6.39807
1031.16	10.2429
1034.05	15.4363
1036.94	21.3093
1039.84	27.8594
1042.73	37.8934
1045.62	50.597
1048.51	67.2785
1051.41	92.1241
1054.3	119.425
1057.19	154.095
1060.08	187.747
1062.98	224.129
1065.87	243.516
1068.76	218.284
1071.65	184.105
1074.55	182.903
1077.44	179.434
1080.33	131.338
1083.23	57.7059
1086.12	24.2843
1089.01	13.8363
1091.9	11.0693
1094.8	8.03522
1097.69	7.32256
1100.58	3.73959
1103.47	3.83072
1106.37	1.8835
1109.26	2.90346
1112.15	1.52683
1115.05	0.771072
1117.94	0.484375
1120.83	0.230469
1123.72	1.58601
1126.62	0.297043
1129.51	0.819153
1132.4	0.37326
1135.29	0.319016
1138.19	0.451904
1141.08	1.25278
1143.97	0.588745
1146.87	1.36307
1149.76	0.073807
1152.65	0.953522
1155.54	1.1096
1158.44	0.695282
1161.33	1.1887
1164.22	0.732635
1167.11	2.31384
1170.01	2.86881
1172.9	2.31688
1175.79	1.94163
1178.68	1.35002
1181.58	2.17516
1184.47	2.68483
1187.36	1.27603
1190.26	2.26117
1193.15	2.72298
1196.04	1.11447
1198.93	2.45732
1201.83	5.96356
1204.72	1.12334
1207.61	0.025467
1210.51	0.708771
1213.4	0.989777
1216.29	0.427353
1219.18	2.24492
1222.08	0.239914
1224.97	0.412567
1227.86	0.638016
1230.75	0.741684
1233.65	0.413406
1236.54	0.818436
1239.43	0.72049
1242.32	1.09306
1245.22	1.98161
1248.11	1.07182
1251	1.46075
1253.89	2.34558
1256.79	1.88803
1259.68	1.03645
1262.57	0.81691
1265.47	2.14789
1268.36	1.24797
1271.25	1.06212
1274.14	0.08847
1277.04	1.32127
1279.93	0.250183
1282.82	0.760437
1285.71	0.498688
1288.61	1.00467
1291.5	1.30051
1294.39	0.431335
1297.29	0.167709
1300.18	0.106354
