Measurement: Raman, 532 nm, unoriented, Raman Data Processed
Mineral: Veszelyite
Rruff sample: R150144
Ideal chemistry: Cu^2+^_3_PO_4_(OH)_3_2H_2_O
Locality: Hisaichi Mine, Nakagawa, Akita Prefecture, Japan
Source: Leor Goldberg
Description: A fragment of dark blue crystal
Raman shift (cm-1)	intensity
118.028	0
121.403	44.7687
124.778	144.141
128.152	213.262
131.527	150.767
134.902	25.9744
138.277	0.744629
141.652	10.1778
145.026	24.55
148.401	47.1028
151.776	91.5409
155.151	75.7828
158.526	40.768
161.901	29.1633
165.275	33.5068
168.65	42.4954
172.025	56.2239
175.4	58.4686
178.775	53.7933
182.149	80.4739
185.524	119.9
188.899	138.725
192.274	110.037
195.649	77.7062
199.024	46.5854
202.398	21.8216
205.773	7.71258
209.148	1.85339
212.523	6.6471
215.898	4.07019
219.273	1.30103
222.647	6.06116
226.022	18.0902
229.397	31.9935
232.772	59.0421
236.147	94.1674
239.521	100.817
242.896	94.1975
246.271	71.4904
249.646	53.1435
253.021	45.8345
256.396	49.5552
259.77	60.1113
263.145	55.5216
266.52	44.6459
269.895	39.764
273.27	35.183
276.644	35.3572
280.019	30.2635
283.394	24.9362
286.769	14.752
290.144	8.64587
293.519	2.04083
296.893	1.21362
300.268	1.54474
303.643	2.05121
307.018	3.82324
310.392	0.232666
313.767	0.811951
317.142	1.65344
320.517	3.51837
323.892	7.16864
327.267	7.78662
330.641	7.90973
334.016	6.82349
337.391	6.69916
340.766	7.98053
344.141	5.83142
347.515	12.4695
350.89	15.2049
354.265	30.0579
357.64	36.0678
361.015	47.9496
364.39	58.234
367.764	64.8097
371.139	78.6212
374.514	88.981
377.889	94.2869
381.264	85.6455
384.639	76.6162
388.013	68.2471
391.388	58.3033
394.763	48.4162
398.138	39.3663
401.513	35.5104
404.887	25.783
408.262	15.5215
411.637	6.85126
415.012	1.46612
418.387	0.220276
421.762	3.92871
425.136	2.36194
428.511	0.032532
431.886	3.41522
435.261	1.40973
438.636	5.03119
442.01	6.27533
445.385	12.676
448.76	9.78662
452.135	13.6077
455.51	22.6869
458.885	38.0599
462.259	55.7537
465.634	80.053
469.009	104.109
472.384	118.85
475.759	126.095
479.133	136.375
482.508	147.174
485.883	146.466
489.258	128.181
492.633	106.876
496.007	83.4836
499.382	64.7051
502.757	49.9377
506.132	37.6339
509.507	27.8566
512.882	24.2584
516.256	21.7567
519.631	23.5192
523.006	26.3135
526.381	34.5303
529.756	40.59
533.13	50.8981
536.505	52.2773
539.88	49.3304
543.255	43.3633
546.63	39.5348
550.005	37.6464
553.379	37.2252
556.754	29.2044
560.129	13.9163
563.504	3.19153
566.879	0.429321
570.254	0.360657
573.628	1.16284
577.003	2.48505
580.378	0.042175
583.753	0.311401
587.128	1.31091
590.502	2.63025
593.877	3.99695
597.252	5.89453
600.627	11.2054
604.002	14.9182
607.376	19.4422
610.751	28.2742
614.126	36.7735
617.501	48.3403
620.876	52.8657
624.25	50.0175
627.625	45.5612
631	32.3155
634.375	25.7967
637.75	17.9033
641.125	13.3642
644.5	7.11084
647.874	5.49109
651.249	3.78833
654.624	2.85474
657.999	2.71503
661.374	3.19238
664.748	0.074646
668.123	1.38452
671.498	1.48224
674.873	0.963806
678.248	1.42816
681.622	4.18622
684.997	0.238464
688.372	2.72614
691.747	0.016663
695.122	0.225342
698.496	2.0387
701.871	0.694031
705.246	0.92041
708.621	2.43408
711.996	1.51587
715.371	2.28772
718.745	1.16608
722.12	0.066956
725.495	2.07867
728.87	3.6853
732.245	2.6048
735.62	3.36896
738.994	2.65039
742.369	3.90039
745.744	2.62299
749.119	4.61676
752.494	4.50763
755.868	1.96466
759.243	2.13104
762.618	3.0567
765.993	2.87408
769.368	0.595093
772.742	1.8584
776.117	1.77216
779.492	1.67596
782.867	0.954529
786.242	0.135254
789.617	0.771301
792.991	0.953186
796.366	0.290466
799.741	0.854736
803.116	4.62891
806.491	1.01495
809.865	3.48425
813.24	4.3429
816.615	6.22284
819.99	7.57947
823.365	8.88184
826.74	10.0154
830.114	10.4276
833.489	10.8434
836.864	10.6456
840.239	11.76
843.614	10.6924
846.989	11.493
850.363	12.1472
853.738	10.2695
857.113	11.0364
860.488	9.6416
863.863	9.94446
867.237	9.37024
870.612	7.79572
873.987	5.61652
877.362	6.05969
880.737	5.30981
884.111	5.56354
887.486	4.24481
890.861	5.82812
894.236	3.42242
897.611	1.49316
900.986	0.980713
904.36	1.05817
907.735	1.6261
911.11	2.38544
914.485	3.91418
917.86	9.05658
921.235	14.1928
924.609	22.3689
927.984	25.5014
931.359	27.0676
934.734	23.3853
938.109	22.6155
941.483	30.3695
944.858	28.8601
948.233	33.7666
951.608	38.9051
954.983	62.3152
958.357	102.662
961.732	170.373
965.107	234.673
968.482	179.637
971.857	78.8331
975.232	31.8876
978.606	14.2507
981.981	4.10931
985.356	2.19519
988.731	0.084717
992.106	0.767334
995.481	1.19147
998.855	1.03046
1002.23	1.52618
1005.61	4.01581
1008.98	6.92633
1012.36	12.1401
1015.73	16.8379
1019.1	23.4279
1022.48	26.5508
1025.85	29.2044
1029.23	32.3068
1032.6	38.2662
1035.98	44.9867
1039.35	56.4209
1042.73	71.2977
1046.1	74.3554
1049.48	52.6367
1052.85	30.7809
1056.23	17.0713
1059.6	10.2038
1062.98	8.27841
1066.35	4.88684
1069.73	2.76221
1073.1	0.191589
1076.48	0.080017
1079.85	0.331879
1083.23	0.327942
1086.6	1.65134
1089.97	2.23779
1093.35	1.61514
1096.72	1.5791
1100.1	4.0593
1103.47	3.41538
1106.85	4.7655
1110.22	6.39679
1113.6	7.6051
1116.97	4.46869
1120.35	3.12262
1123.72	1.69528
1127.1	1.03894
1130.47	0.755737
1133.85	0.737579
1137.22	2.04886
1140.6	1.42212
1143.97	1.12494
1147.35	1.0343
1150.72	0.685486
1154.1	2.53604
1157.47	0.343719
1160.85	2.85153
1164.22	1.00671
1167.6	1.5798
1170.97	2.1871
1174.35	0.614899
1177.72	0.978638
1181.1	4.2904
1184.47	4.23865
1187.85	4.15317
1191.22	4.82367
1194.6	2.84378
1197.97	2.77713
1201.34	3.96759
1204.72	2.33582
1208.09	2.08108
1211.47	2.98114
1214.84	2.72205
1218.22	1.42917
1221.59	3.82623
1224.97	2.82342
1228.34	2.28982
1231.72	3.62412
1235.09	1.26926
1238.47	2.32376
1241.84	1.9996
1245.22	1.90671
1248.59	3.49606
1251.97	3.16538
1255.34	2.64432
1258.72	3.43948
1262.09	1.83142
1265.47	2.66501
1268.84	2.6297
1272.21	1.30203
1275.59	2.06207
1278.96	1.07593
1282.34	1.40024
1285.71	2.36194
1289.09	4.31824
1292.46	4.38052
1295.84	0.498383
1299.21	0.0979
