Measurement: Raman, 780 nm, unoriented, Raman Data Processed
Mineral: Virgilluethite
Rruff sample: R220017
Ideal chemistry: Mo^6+^O_3_H_2_O
Locality: Cooke's Peak, Cookes Range, Luna County, New Mexico, USA
Source: Ron Gibbs
Description: Aggregates of yellow-green lamellas. Type sample
Measured chemistry: MoO_3_Â·H_2_O, which was calculated on the basis of 4 O apfu.
Raman shift (cm-1)	intensity
95.778	0
99.1528	2.47833
102.528	2.29177
105.903	5.24729
109.277	20.9273
112.652	47.4899
116.027	101.181
119.402	122.986
122.777	133.06
126.151	113.066
129.526	71.7293
132.901	28.9473
136.276	3.83959
139.651	3.67405
143.025	3.03698
146.4	8.20083
149.775	9.47758
153.15	37.6484
156.525	70.7172
159.9	109.933
163.274	139.4
166.649	170.623
170.024	202.034
173.399	216.459
176.774	206.197
180.149	189.861
183.523	151.566
186.898	117.592
190.273	92.5875
193.648	75.5219
197.023	70.058
200.397	60.675
203.772	53.2005
207.147	48.8769
210.522	42.4619
213.897	45.8835
217.272	42.8802
220.646	44.2227
224.021	36.8548
227.396	37.6184
230.771	27.0706
234.146	15.625
237.52	14.7969
240.895	24.6147
244.27	28.6299
247.645	46.5362
251.02	48.6685
254.394	48.4201
257.769	49.1792
261.144	44.5294
264.519	37.1616
267.894	31.2228
271.269	25.6809
274.643	25.0727
278.018	20.9033
281.393	6.74512
284.768	4.96667
288.143	3.01232
291.517	2.58629
294.892	2.00292
298.267	7.02419
301.642	1.21696
305.017	1.72388
308.392	4.55015
311.766	6.18732
315.141	14.653
318.516	13.5822
321.891	17.9579
325.266	25.3036
328.64	27.3703
332.015	26.6295
335.39	26.1592
338.765	19.2573
342.14	23.4056
345.515	23.7586
348.889	21.5932
352.264	22.7078
355.639	18.8376
359.014	20.4501
362.389	16.0199
365.764	21.9107
369.138	28.6684
372.513	26.3109
375.888	24.6838
379.263	19.6012
382.637	18.9616
386.012	17.1879
389.387	8.74516
392.762	2.94993
396.137	2.57151
399.512	4.29259
402.886	1.21297
406.261	0.850665
409.636	0.76168
413.011	2.4172
416.386	4.43167
419.76	3.69192
423.135	9.65236
426.51	15.2093
429.885	23.8976
433.26	23.4537
436.635	18.202
440.01	22.2562
443.384	18.9109
446.759	16.9984
450.134	16.0487
453.509	12.0567
456.884	14.7509
460.258	14.4173
463.633	9.15669
467.008	8.62343
470.383	10.3441
473.758	6.65958
477.132	5.62841
480.507	4.86294
483.882	1.0131
487.257	0.295506
490.632	1.05345
494.007	0.643703
497.381	1.21938
500.756	1.5919
504.131	0.315773
507.506	0.325096
510.881	0.032997
514.255	0.472507
517.63	1.36913
521.005	2.42724
524.38	4.64494
527.755	0.709744
531.13	2.09786
534.504	3.43445
537.879	3.10831
541.254	4.85037
544.629	7.27168
548.004	6.75495
551.378	8.84548
554.753	11.0646
558.128	11.3596
561.503	18.2273
564.878	24.6996
568.253	30.111
571.627	24.9193
575.002	39.3771
578.377	51.2926
581.752	57.2366
585.127	60.9019
588.501	75.5865
591.876	77.2913
595.251	82.5752
598.626	86.8088
602.001	87.442
605.375	76.9438
608.75	71.6061
612.125	61.5806
615.5	55.3584
618.875	40.5052
622.25	34.9555
625.625	24.717
628.999	17.8871
632.374	13.2096
635.749	9.66095
639.124	2.83617
642.499	0.978814
645.873	3.17507
649.248	1.44444
652.623	0.294833
655.998	1.6555
659.373	0.187901
662.747	1.71056
666.122	0.245708
669.497	2.43709
672.872	4.99439
676.247	14.4654
679.621	23.7236
682.996	32.5049
686.371	42.4874
689.746	59.5035
693.121	78.8034
696.496	104.672
699.87	151.477
703.245	190.762
706.62	246.796
709.995	311.218
713.37	375.281
716.745	421.404
720.119	443.193
723.494	433.805
726.869	393.504
730.244	353.496
733.619	304.617
736.993	252.643
740.368	203.558
743.743	164.522
747.118	123.968
750.493	88.349
753.867	66.5295
757.242	44.7279
760.617	28.713
763.992	23.1455
767.367	14.2821
770.742	8.44111
774.116	6.47141
777.491	0.942397
780.866	0.081447
784.241	3.05528
787.616	1.48011
790.99	1.14782
794.365	0.834677
797.74	0.69143
801.115	1.90944
804.49	0.993682
807.865	3.87921
811.239	2.41273
814.614	0.700711
817.989	1.47835
821.364	0.445388
824.739	0.920115
828.114	2.53586
831.488	1.03746
834.863	1.7314
838.238	0.80097
841.613	0.885044
844.988	2.47437
848.362	0.98924
851.737	0.517813
855.112	4.71191
858.487	0.31093
861.862	1.01785
865.236	3.67251
868.611	0.029288
871.986	3.54833
875.361	2.86122
878.736	0.945654
882.111	2.67822
885.485	0.988505
888.86	2.53276
892.235	1.42016
895.61	3.88289
898.985	7.45964
902.36	11.2858
905.734	7.01586
909.109	12.7999
912.484	21.4959
915.859	40.5658
919.234	76.9975
922.608	144.099
925.983	163.293
929.358	106.241
932.733	64.4846
936.108	58.4739
939.482	47.4916
942.857	53.4422
946.232	51.1863
949.607	48.6818
952.982	44.5336
956.357	39.8145
959.731	35.2379
963.106	24.9364
966.481	17.9927
969.856	13.4936
973.231	10.3429
976.606	3.80586
979.98	4.66076
983.355	1.31205
986.73	0.939569
990.105	0.610181
993.48	0.445745
996.854	0.857086
1000.23	0.639818
1003.6	0.281514
1006.98	0.968176
1010.35	0.689235
1013.73	3.87752
1017.1	1.45355
1020.48	4.08861
1023.85	1.35998
1027.23	0.503642
1030.6	1.66666
1033.98	4.51986
1037.35	4.07299
1040.73	6.7553
1044.1	7.43836
1047.48	5.60505
1050.85	2.51378
1054.23	3.31046
1057.6	2.97996
1060.98	4.54275
1064.35	3.58536
1067.73	0.94714
1071.1	1.89172
1074.47	2.23269
1077.85	0.042386
1081.22	2.80147
1084.6	1.82532
1087.97	4.23708
1091.35	3.78967
1094.72	1.38607
1098.1	2.58984
1101.47	3.00319
1104.85	0.731441
1108.22	0.863638
1111.6	1.49165
1114.97	0.454964
1118.35	0.598596
1121.72	2.18042
1125.1	0.980813
1128.47	0.231456
1131.85	2.87231
1135.22	3.4388
1138.6	1.0573
1141.97	0.519617
1145.35	0.757232
1148.72	1.75063
1152.1	2.53623
1155.47	1.16095
1158.85	3.87465
1162.22	0.189028
1165.6	4.08087
1168.97	0.854118
1172.35	0.442341
1175.72	3.24467
1179.1	2.57437
1182.47	1.18246
1185.84	1.06077
1189.22	1.51902
1192.59	3.37006
1195.97	1.0447
1199.34	1.77613
1202.72	3.28829
1206.09	4.15755
1209.47	3.20738
1212.84	2.65663
1216.22	1.27085
1219.59	1.30132
1222.97	2.35703
1226.34	0.154175
1229.72	0.000201
1233.09	0.76543
1236.47	2.37938
1239.84	1.45849
1243.22	2.01581
1246.59	1.17079
1249.97	3.93793
1253.34	0.206549
1256.71	3.89043
1260.09	3.10742
1263.46	2.76123
1266.84	2.09871
1270.21	0.938602
1273.59	0.67069
1276.96	2.41151
1280.34	0.478059
