Measurement: Raman, 532 nm, unoriented, Raman Data Processed
Mineral: Virgilluethite
Rruff sample: R220017
Ideal chemistry: Mo^6+^O_3_H_2_O
Locality: Cooke's Peak, Cookes Range, Luna County, New Mexico, USA
Source: Ron Gibbs
Description: Aggregates of yellow-green lamellas. Type sample
Measured chemistry: MoO_3_Â·H_2_O, which was calculated on the basis of 4 O apfu.
Raman shift (cm-1)	intensity
88.1367	0
91.5115	318.947
94.8863	395.454
98.2612	320.302
101.636	64.8044
105.011	41.4308
108.386	29.1277
111.76	49.043
115.135	233.455
118.51	496.362
121.885	780.732
125.26	1041.73
128.635	1219.65
132.009	1124.99
135.384	751.338
138.759	396.151
142.134	258.592
145.509	291.349
148.883	473.347
152.258	736.317
155.633	1084.68
159.008	1469.86
162.383	1942.7
165.757	2430.58
169.132	3011.74
172.507	3563.63
175.882	3923.11
179.257	3898.97
182.632	3389.72
186.006	2458.84
189.381	1479.78
192.756	772.784
196.131	381.218
199.506	247.68
202.881	222.087
206.255	256.272
209.63	348.315
213.005	468.296
216.38	601.63
219.755	681.865
223.129	789.81
226.504	988.531
229.879	1106.23
233.254	1046.07
236.629	961.319
240.004	952.5
243.378	1030.99
246.753	1223.97
250.128	1427.66
253.503	1622.63
256.878	1813.61
260.252	1939.27
263.627	1902.89
267.002	1758.49
270.377	1588.46
273.752	1484.13
277.127	1342.81
280.501	1112.97
283.876	789.163
287.251	501.008
290.626	275.978
294.001	116.575
297.375	5.67102
300.75	41.1902
304.125	72.4017
307.5	73.4105
310.875	64.1064
314.25	37.5114
317.624	9.41309
320.999	54.6344
324.374	120.768
327.749	199.99
331.124	268.327
334.498	304.094
337.873	305.959
341.248	236.779
344.623	202.866
347.998	198.503
351.373	227.668
354.747	263.221
358.122	308.877
361.497	334.283
364.872	389.805
368.247	441.861
371.621	424.537
374.996	340.054
378.371	257.426
381.746	211.924
385.121	182.411
388.495	157.165
391.87	132.407
395.245	108.905
398.62	107.27
401.995	80.4268
405.37	57.9915
408.744	44.5438
412.119	39.8548
415.494	37.7968
418.869	52.4023
422.244	75.2215
425.618	110.592
428.993	152.221
432.368	187.469
435.743	193.28
439.118	185.924
442.493	193.465
445.867	193.271
449.242	190.183
452.617	171.826
455.992	155.973
459.367	135.265
462.741	115.77
466.116	94.8084
469.491	78.0117
472.866	59.152
476.241	39.6243
479.615	21.2663
482.99	14.1382
486.365	1.41101
489.74	0.239746
493.115	5.59882
496.49	9.73688
499.864	8.95337
503.239	6.34405
506.614	13.21
509.989	9.69702
513.364	8.65082
516.739	6.28467
520.113	6.70911
523.488	18.0193
526.863	26.8383
530.238	40.2701
533.613	57.2719
536.987	81.8058
540.362	112.156
543.737	143.164
547.112	167.193
550.487	225.658
553.861	285.971
557.236	356.713
560.611	447.346
563.986	554.148
567.361	691.25
570.736	841.64
574.11	1021.35
577.485	1235.1
580.86	1467.68
584.235	1729.5
587.61	1972.54
590.985	2250.28
594.359	2464.13
597.734	2627.32
601.109	2677.52
604.484	2621.99
607.859	2453.43
611.233	2202.96
614.608	1906.77
617.983	1584.42
621.358	1287.12
624.733	1005.86
628.107	763.091
631.482	559.264
634.857	387.971
638.232	251.752
641.607	136.956
644.982	59.6977
648.356	9.3916
651.731	42.0607
655.106	63.6943
658.481	47.2815
661.856	24.4839
665.231	20.1576
668.605	94.8904
671.98	189.432
675.355	283.507
678.73	415.268
682.105	583.24
685.479	774.232
688.854	997.116
692.229	1289.36
695.604	1674.06
698.979	2190.1
702.354	2859.28
705.728	3750.57
709.103	4810.77
712.478	5848.16
715.853	6701.23
719.227	7120.56
722.602	6987.03
725.977	6452.15
729.352	5725.4
732.727	4986.02
736.102	4246.03
739.476	3510.51
742.851	2829.67
746.226	2233.12
749.601	1759.37
752.976	1381.72
756.351	1095.98
759.725	864.436
763.1	687.123
766.475	544.825
769.85	425.26
773.225	317.353
776.599	243.247
779.974	174.684
783.349	113.932
786.724	76.9534
790.099	37.1023
793.473	15.2339
796.848	3.38934
800.223	11.6929
803.598	22.3223
806.973	11.6262
810.348	22.0537
813.722	19.4418
817.097	10.0621
820.472	7.40118
823.847	4.84613
827.222	13.1812
830.597	12.9706
833.971	27.3419
837.346	38.0474
840.721	39.4033
844.096	48.679
847.471	53.5873
850.846	63.1287
854.22	71.8636
857.595	84.4349
860.97	82.2063
864.345	75.0501
867.72	78.6975
871.094	82.5782
874.469	81.0554
877.844	82.8171
881.219	92.602
884.594	91.6862
887.968	98.9712
891.343	111.373
894.718	129.1
898.093	159.224
901.468	191.204
904.842	216.941
908.217	276.554
911.592	392.3
914.967	649.896
918.342	1115.27
921.717	1884.25
925.091	2745.14
928.466	2396.13
931.841	1367.4
935.216	803.639
938.591	516.974
941.966	367.963
945.34	274.051
948.715	209.479
952.09	174.498
955.465	144.234
958.84	121.55
962.214	83.4061
965.589	56.4297
968.964	38.3714
972.339	24.8991
975.714	15.7202
979.088	10.4737
982.463	1.13867
985.838	4.1485
989.213	8.39551
992.588	6.05054
995.963	5.07483
999.337	4.38293
1002.71	1.09238
1006.09	0.397552
1009.46	2.42496
1012.84	0.424713
1016.21	0.761108
1019.59	8.07913
1022.96	5.52756
1026.34	10.3496
1029.71	9.22922
1033.09	14.3298
1036.46	9.66873
1039.84	16.5629
1043.21	13.9179
1046.59	12.3684
1049.96	13.3179
1053.33	5.97696
1056.71	8.04089
1060.08	8.52576
1063.46	8.66806
1066.83	5.76286
1070.21	4.57362
1073.58	3.20703
1076.96	5.20711
1080.33	6.13718
1083.71	4.21017
1087.08	4.87125
1090.46	5.85333
1093.83	7.01914
1097.21	1.08256
1100.58	5.49947
1103.96	5.27687
1107.33	3.85257
1110.71	2.08736
1114.08	4.86581
1117.46	2.1555
1120.83	3.57046
1124.21	4.05104
1127.58	1.88815
1130.95	0.397583
1134.33	2.88928
1137.7	5.54062
1141.08	4.81166
1144.45	2.14061
1147.83	2.99054
1151.2	0.525482
1154.58	5.59651
1157.95	2.97253
1161.33	0.014496
1164.7	2.17342
1168.08	0.537964
1171.45	6.53046
1174.83	4.55217
1178.2	5.24857
1181.58	4.19916
1184.95	4.98654
1188.33	3.83055
1191.7	4.60976
1195.08	4.67281
1198.45	1.98935
1201.83	4.73453
1205.2	1.30089
1208.58	1.12691
1211.95	3.03877
1215.33	3.51584
1218.7	6.09923
1222.08	2.54398
1225.45	1.94978
1228.83	3.23326
1232.2	3.80592
1235.58	0.472137
1238.95	4.3911
1242.32	3.84866
1245.7	4.99329
1249.07	5.56804
1252.45	3.74985
1255.82	2.19882
1259.2	4.61066
1262.57	2.60132
1265.95	2.47792
1269.32	5.13136
1272.7	4.69721
1276.07	5.71783
1279.45	2.81659
1282.82	6.47484
1286.2	0.868942
1289.57	6.25111
1292.95	2.36775
1296.32	2.90265
1299.7	0.557037
