Measurement: Raman, 780 nm, unoriented, Raman Data Processed
Mineral: Waimirite-(Y)
Rruff sample: R130714
Ideal chemistry: Y^3+^F_3_
Locality: Pitinga mine, Amazon, Brazil
Source: Marcelo B Andrade
Description: Pale pink massive, portion of the original find
Measured chemistry: (Y_0.69_Dy_0.08_Er_0.06_Yb_0.05_Ca_0.03_Gd_0.02_Ho_0.02_Nd_0.01_Sm_0.01_Tb_0.01_Tm_0.01_Lu_0.01_)_Ʃ1.00_(F_2.54_[box]_0.25_O_0.21_)_Ʃ3.00_
Raman shift (cm-1)	intensity
104.577	0
107.952	1.51001
111.327	4.47436
114.701	16.3425
118.076	21.5779
121.451	32.2293
124.826	51.3162
128.201	67.9705
131.576	85.8877
134.95	109.376
138.325	135.398
141.7	164.753
145.075	191.69
148.45	217.583
151.825	246.26
155.199	264.927
158.574	292.14
161.949	305.298
165.324	320.008
168.698	330.598
172.073	329.723
175.448	323.683
178.823	317.539
182.198	307.436
185.573	290.74
188.947	272.679
192.322	240.944
195.697	209.1
199.072	178.618
202.447	152.517
205.821	124.801
209.196	93.5085
212.571	65.9407
215.946	50.0159
219.321	28.5933
222.696	15.0037
226.07	4.55371
229.445	3.95752
232.82	3.45068
236.195	2.25635
239.57	0.312256
242.945	4.69922
246.319	12.491
249.694	12.0303
253.069	16.3921
256.444	18.3791
259.818	25.6321
263.193	21.5102
266.568	30.1382
269.943	44.6682
273.318	40.3083
276.693	50.3403
280.067	45.5557
283.442	45.4707
286.817	38.5676
290.192	38.9368
293.567	29.3625
296.942	38.093
300.316	24.0183
303.691	19.9597
307.066	9.57153
310.441	1.0852
313.816	4.29394
317.19	6.68237
320.565	8.52051
323.94	14.8804
327.315	7.86157
330.69	9.25708
334.065	0.818848
337.439	20.3577
340.814	39.3164
344.189	57.5562
347.564	71.9194
350.938	82.4522
354.313	90.1589
357.688	107.402
361.063	118.273
364.438	115.349
367.813	106.419
371.187	102.451
374.562	92.4294
377.937	100.812
381.312	109.939
384.687	124.374
388.062	148.487
391.436	180.992
394.811	201.118
398.186	237
401.561	265.482
404.935	293.041
408.31	307.389
411.685	323.372
415.06	346.719
418.435	362.652
421.81	386.275
425.184	397.167
428.559	407.925
431.934	414.044
435.309	405.09
438.684	393.147
442.058	367.745
445.433	320.075
448.808	285.498
452.183	243.087
455.558	193.89
458.933	156.403
462.307	120.616
465.682	94.1609
469.057	80.3811
472.432	57.8301
475.807	45.9495
479.182	31.2114
482.556	33.3955
485.931	28.7661
489.306	28.5303
492.681	20.7248
496.055	16.9563
499.43	10.0574
502.805	9.86206
506.18	6.87427
509.555	0.268311
512.93	2.59937
516.304	2.51904
519.679	7.66479
523.054	10.2354
526.429	2.89233
529.804	5.53564
533.178	8.1001
536.553	2.72705
539.928	1.98193
543.303	2.06714
546.678	1.69922
550.053	7.4729
553.427	12.2583
556.802	10.8015
560.177	2.60938
563.552	4.41284
566.927	0.827148
570.302	2.03101
573.676	0.152344
577.051	10.4636
580.426	6.71314
583.801	5.15332
587.176	10.9644
590.55	15.6768
593.925	17.051
597.3	27.9839
600.675	31.2786
604.05	35.446
607.424	35.4753
610.799	41.1887
614.174	34.4961
617.549	36.3398
620.924	30.6887
624.298	20.7766
627.673	21.407
631.048	18.9995
634.423	20.1997
637.798	24.6101
641.173	26.4895
644.547	35.6594
647.922	40.3181
651.297	53.6226
654.672	58.0459
658.047	73.012
661.421	86.8286
664.796	91.0811
668.171	102.319
671.546	106.584
674.921	116.767
678.295	121.966
681.67	121.668
685.045	123.893
688.42	129.571
691.795	128.433
695.17	119.831
698.544	114.404
701.919	110.639
705.294	104.105
708.669	101.559
712.044	97.3601
715.418	93.6536
718.793	88.7748
722.168	79.9139
725.543	74.1809
728.918	71.4592
732.293	67.8214
735.667	64.0339
739.042	56.5192
742.417	41.7947
745.792	38.4479
749.167	26.2635
752.541	20.3337
755.916	13.7841
759.291	9.19104
762.666	0.787354
766.041	0.994141
769.415	5.20874
772.79	2.28076
776.165	2.41431
779.54	3.41968
782.915	4.30225
786.29	3.75293
789.664	5.60303
793.039	2.82556
796.414	0.254395
799.789	0.869507
803.164	0.458252
806.538	11.797
809.913	13.9803
813.288	6.33301
816.663	15.8572
820.038	13.9824
823.413	21.8405
826.787	20.2299
830.162	23.3169
833.537	18.2933
836.912	21.8334
840.287	20.8804
843.661	21.5
847.036	23.7856
850.411	22.0801
853.786	19.2707
857.161	13.7588
860.535	12.8274
863.91	12.772
867.285	14.2561
870.66	14.7614
874.035	14.0397
877.409	10.6632
880.784	10.9168
884.159	11.9172
887.534	8.9458
890.909	10.7278
894.284	11.9896
897.658	6.35327
901.033	10.2086
904.408	8.45886
907.783	12.5421
911.158	10.309
914.533	11.3175
917.907	11.7125
921.282	13.8737
924.657	9.65039
928.032	12.3565
931.407	9.59839
934.781	13.0673
938.156	20.194
941.531	14.7428
944.906	16.1844
948.281	11.5939
951.655	11.1019
955.03	17.4009
958.405	20.3491
961.78	17.1984
965.155	14.7231
968.529	18.6538
971.904	16.4708
975.279	16.7155
978.654	14.8535
982.029	18.9589
985.404	20.4217
988.778	23.9974
992.153	19.3686
995.528	27.2396
998.903	25.8018
1002.28	29.5804
1005.65	28.0962
1009.03	26.8069
1012.4	24.6527
1015.78	24.5984
1019.15	21.9869
1022.53	15.0312
1025.9	12.8132
1029.28	6.82007
1032.65	6.69727
1036.03	4.77112
1039.4	1.38391
1042.78	2.66187
1046.15	6.32288
1049.53	6.61218
1052.9	11.0696
1056.28	10.8613
1059.65	13.1311
1063.02	9.28601
1066.4	9.31445
1069.77	7.60217
1073.15	1.65808
1076.52	3.55078
1079.9	13.4175
1083.27	23.8857
1086.65	40.5311
1090.02	56.8156
1093.4	80.2523
1096.77	107.404
1100.15	143.917
1103.52	192.099
1106.9	258.043
1110.27	337.46
1113.65	438.693
1117.02	578.726
1120.4	753.152
1123.77	976.315
1127.15	1240.92
1130.52	1520.58
1133.9	1810.75
1137.27	2047.11
1140.64	2205.3
1144.02	2238.82
1147.39	2159.21
1150.77	1997.95
1154.14	1817.7
1157.52	1636.97
1160.89	1471.22
1164.27	1315.66
1167.64	1181.62
1171.02	1095.6
1174.39	1029.13
1177.77	970.334
1181.14	910.139
1184.52	856.013
1187.89	797.864
1191.27	747.103
1194.64	695.298
1198.02	642.755
1201.39	587.395
1204.77	513.734
1208.14	435.683
1211.52	352.748
1214.89	263.344
1218.27	164.597
1221.64	62.6287
1225.02	36.1956
1228.39	92.1516
1231.77	67.88
1235.14	35.0904
1238.52	13.8849
1241.89	83.865
1245.26	179.145
1248.64	313.311
1252.01	464.221
1255.39	565.811
1258.76	460.303
1262.14	347.367
1265.51	338.933
1268.89	423.35
1272.26	559.498
1275.64	694.339
1279.01	627.111
1282.39	247.447
