Measurement: Raman, 532 nm, unoriented, Raman Data Processed
Mineral: Wangkuirenite
Rruff sample: R220047
Ideal chemistry: Pb^2+^_3_Cl_2_(Se^4+^O_3_)_2_
Locality: Baccu Locci mine, Villaputen, Sardinia, Italy
Source: Bill Pinch
Description: Pale yellow tabular or bladed crystals, associated with krut'aite, chalcomenite, orlandiite, olsacherite, and anglesite.
Measured chemistry: Pb_3.01_Cl_1.96_(Se_1.00_O_3.02_)_2_ ; calculated on the basis of 8 (O + Cl) apfu.
Raman shift (cm-1)	intensity
88.5137	0
91.8885	157.088
95.2633	452.095
98.6381	305.442
102.013	7.02997
105.388	34.9265
108.763	216.176
112.137	337.296
115.512	298.337
118.887	319.034
122.262	458.226
125.637	651.217
129.012	796.668
132.386	819.229
135.761	924.663
139.136	1118.69
142.511	1125.51
145.886	849.272
149.26	581.858
152.635	435.448
156.01	337.408
159.385	268.973
162.76	203.921
166.134	156.867
169.509	112.01
172.884	80.3136
176.259	67.3483
179.634	51.6943
183.008	43.9199
186.383	29.017
189.758	20.6949
193.133	9.85834
196.508	9.93567
199.883	1.35974
203.257	4.57873
206.632	7.0694
210.007	4.80768
213.382	2.91547
216.757	8.7464
220.131	14.8921
223.506	12.3239
226.881	7.00861
230.256	6.5145
233.631	15.9315
237.006	8.37561
240.38	6.88504
243.755	1.48108
247.13	4.547
250.505	9.9151
253.88	2.97421
257.255	2.19949
260.629	3.59573
264.004	0.769226
267.379	0.504822
270.754	0.996552
274.128	0.477112
277.503	0.575104
280.878	0.194763
284.253	0.798279
287.628	3.07526
291.003	7.39835
294.377	2.74164
297.752	3.92065
301.127	2.2341
304.502	3.75757
307.877	0.097626
311.252	3.53616
314.626	3.90439
318.001	5.13507
321.376	4.99383
324.751	10.0449
328.126	12.9393
331.5	17.4803
334.875	30.3356
338.25	52.4369
341.625	92.8517
345	136.68
348.375	194.638
351.749	219.655
355.124	165.314
358.499	100.308
361.874	78.5562
365.249	87.192
368.623	104.514
371.998	113.017
375.373	93.6688
378.748	68.9664
382.123	54.7267
385.498	52.6757
388.872	56.6467
392.247	65.5034
395.622	77.8674
398.997	92.3977
402.372	87.1331
405.746	63.1499
409.121	36.0378
412.496	19.3435
415.871	10.0475
419.246	4.95703
422.62	1.46106
425.995	4.30432
429.37	3.78565
432.745	0.938599
436.12	0.392029
439.495	3.97479
442.869	11.136
446.244	21.8828
449.619	31.9476
452.994	31.8558
456.369	12.4509
459.743	8.31818
463.118	10.1487
466.493	7.16553
469.868	9.88635
473.243	16.1175
476.618	20.0353
479.992	18.0407
483.367	14.4331
486.742	5.67035
490.117	7.36322
493.492	0.380798
496.866	2.73608
500.241	3.52313
503.616	4.19373
506.991	6.79523
510.366	0.585205
513.74	0.470825
517.115	10.3782
520.49	5.61529
523.865	4.66534
527.24	1.76398
530.615	6.59711
533.989	2.85132
537.364	4.8233
540.739	8.72491
544.114	4.99695
547.489	7.56238
550.864	6.51721
554.238	3.79895
557.613	4.62518
560.988	9.4823
564.363	0.88623
567.737	5.62195
571.112	1.54889
574.487	8.22162
577.862	4.28436
581.237	7.1134
584.612	4.82202
587.986	1.03857
591.361	7.31519
594.736	6.24841
598.111	9.57672
601.486	8.14179
604.861	5.32666
608.235	6.97241
611.61	9.01697
614.985	8.32074
618.36	13.846
621.735	19.9312
625.109	20.6414
628.484	28.6465
631.859	26.8918
635.234	19.8699
638.609	16.0472
641.984	13.3095
645.358	3.57867
648.733	4.52734
652.108	1.2359
655.483	5.44446
658.857	0.094543
662.232	0.92157
665.607	4.09979
668.982	7.89581
672.357	4.91894
675.732	7.90039
679.106	13.0788
682.481	22.4561
685.856	29.4318
689.231	44.2535
692.606	73.8052
695.981	106.739
699.355	153.31
702.73	219.531
706.105	311.372
709.48	388.905
712.855	406.067
716.229	345.278
719.604	252.212
722.979	168.317
726.354	117.804
729.729	67.9567
733.104	47.0742
736.478	30.5343
739.853	19.7065
743.228	10.1523
746.603	2.31152
749.978	2.0047
753.352	3.3891
756.727	1.54285
760.102	0.470398
763.477	0.864502
766.852	0.481201
770.226	8.65949
773.601	15.0361
776.976	20.3679
780.351	38.0102
783.726	52.8496
787.101	61.192
790.475	80.6446
793.85	97.7234
797.225	140.075
800.6	223.776
803.975	381.934
807.349	639.428
810.724	926.697
814.099	1036.64
817.474	688.069
820.849	332.377
824.223	160.445
827.598	81.4888
830.973	52.1303
834.348	26.483
837.723	26.1149
841.098	20.4629
844.472	10.694
847.847	16.3647
851.222	8.72272
854.597	9.24683
857.972	6.20746
861.346	3.58673
864.721	5.30408
868.096	2.9646
871.471	6.47516
874.846	9.12335
878.221	0.308777
881.595	0.563538
884.97	3.72156
888.345	1.25067
891.72	2.59326
895.095	6.80896
898.47	7.94196
901.844	4.40778
905.219	7.44592
908.594	3.48065
911.969	6.89581
915.344	7.37982
918.718	10.3716
922.093	9.42248
925.468	3.56342
928.843	4.78265
932.218	3.91412
935.592	8.04846
938.967	6.75671
942.342	7.86102
945.717	7.19659
949.092	4.07239
952.467	12.0453
955.841	3.56653
959.216	0.874268
962.591	4.20477
965.966	5.45099
969.341	2.17365
972.716	2.4856
976.09	6.12689
979.465	4.4458
982.84	6.39233
986.215	5.67358
989.59	3.29822
992.964	9.16345
996.339	2.4378
999.714	5.88702
1003.09	3.35962
1006.46	2.37628
1009.84	7.50305
1013.21	7.0846
1016.59	7.01703
1019.96	7.67194
1023.34	4.64593
1026.71	5.20142
1030.09	2.10455
1033.46	6.27661
1036.84	6.17163
1040.21	3.7193
1043.59	5.38342
1046.96	3.94922
1050.34	2.11487
1053.71	5.0445
1057.09	5.60315
1060.46	1.89038
1063.84	6.45422
1067.21	5.32483
1070.59	8.53259
1073.96	3.0603
1077.34	14.4584
1080.71	5.06805
1084.08	1.76849
1087.46	3.16803
1090.83	4.92835
1094.21	9.24793
1097.58	9.29102
1100.96	9.13855
1104.33	10.1755
1107.71	4.7655
1111.08	7.9801
1114.46	4.25592
1117.83	6.56775
1121.21	4.16449
1124.58	1.88507
1127.96	3.32092
1131.33	1.84058
1134.71	6.74463
1138.08	3.08661
1141.46	2.36822
1144.83	9.74384
1148.21	7.27161
1151.58	0.556152
1154.95	11.1188
1158.33	1.38049
1161.7	5.39618
1165.08	5.55011
1168.45	9.32831
1171.83	10.9305
1175.2	8.20404
1178.58	10.5562
1181.95	10.3472
1185.33	5.15405
1188.7	2.8205
1192.08	6.08795
1195.45	11.765
1198.83	10.4425
1202.2	7.28491
1205.58	8.83856
1208.95	3.3291
1212.33	5.88586
1215.7	6.23657
1219.08	1.32019
1222.45	6.49744
1225.83	8.39099
1229.2	3.71216
1232.58	5.0647
1235.95	0.521729
1239.33	7.3703
1242.7	2.83978
1246.08	6.04639
1249.45	5.90277
1252.83	13.4643
1256.2	12.9633
1259.58	10.7376
1262.95	1.51593
1266.32	3.87848
1269.7	3.84259
1273.07	8.04773
1276.45	2.37988
1279.82	8.01038
1283.2	15.4127
1286.57	7.68475
1289.95	8.62946
1293.32	2.82892
1296.7	8.15527
1300.07	1.02148
