Measurement: Raman, 780 nm, unoriented, Raman Data Processed
Mineral: Wangkuirenite
Rruff sample: R220047
Ideal chemistry: Pb^2+^_3_Cl_2_(Se^4+^O_3_)_2_
Locality: Baccu Locci mine, Villaputen, Sardinia, Italy
Source: Bill Pinch
Description: Pale yellow tabular or bladed crystals, associated with krut'aite, chalcomenite, orlandiite, olsacherite, and anglesite.
Measured chemistry: Pb_3.01_Cl_1.96_(Se_1.00_O_3.02_)_2_ ; calculated on the basis of 8 (O + Cl) apfu.
Raman shift (cm-1)	intensity
89.5596	0
92.9344	1029.71
96.3092	1470.36
99.684	549.26
103.059	3.96826
106.434	26.0112
109.808	183.342
113.183	265.141
116.558	285.575
119.933	415.577
123.308	636.459
126.683	813.563
130.057	862.606
133.432	1049.17
136.807	1440.73
140.182	1664.15
143.557	1387.3
146.931	914.921
150.306	584.763
153.681	395.295
157.056	292.469
160.431	207.392
163.805	137.731
167.18	76.6744
170.555	34.9967
173.93	1.72302
177.305	3.55261
180.68	2.18445
184.054	1.90674
187.429	4.50476
190.804	5.76227
194.179	0.380432
197.554	0.628296
200.929	13.0653
204.303	28.6258
207.678	49.249
211.053	84.3852
214.428	136.06
217.803	232.093
221.177	370.33
224.552	599.69
227.927	1095.43
231.302	2096.58
234.677	3061.13
238.051	2602.74
241.426	1342.66
244.801	548.611
248.176	260.059
251.551	134.574
254.925	68.8798
258.3	29.9251
261.675	11.6479
265.05	4.47452
268.425	8.86697
271.8	5.05402
275.174	9.74881
278.549	9.5965
281.924	1.7991
285.299	3.32913
288.674	1.66171
292.048	4.01865
295.423	5.65204
298.798	0.600525
302.173	4.07517
305.548	4.94665
308.923	11.5784
312.297	12.7956
315.672	17.5341
319.047	27.8783
322.422	40.8973
325.797	63.7247
329.171	86.976
332.546	102.38
335.921	114.227
339.296	131.466
342.671	176.855
346.046	264.753
349.42	378.647
352.795	438.994
356.17	369.546
359.545	266.279
362.92	224.254
366.294	224.097
369.669	225.744
373.044	192.254
376.419	154.493
379.794	120.754
383.168	99.916
386.543	98.259
389.918	106.572
393.293	130.451
396.668	164.881
400.043	185.946
403.417	159.809
406.792	96.8472
410.167	48.0664
413.542	22.7501
416.917	3.95404
420.291	2.75381
423.666	3.58765
427.041	1.42676
430.416	2.7894
433.791	10.4693
437.166	27.1154
440.54	38.7937
443.915	54.5501
447.29	75.8947
450.665	89.8288
454.04	70.6996
457.414	54.2206
460.789	35.6266
464.164	37.5235
467.539	29.049
470.914	23.3622
474.288	21.9394
477.663	18.8483
481.038	9.18182
484.413	3.6149
487.788	1.21847
491.163	1.28177
494.537	3.52158
497.912	0.831543
501.287	1.36395
504.662	0.327759
508.037	4.10877
511.411	0.207977
514.786	0.913574
518.161	2.99377
521.536	0.068756
524.911	3.06943
528.285	1.42096
531.66	4.59799
535.035	3.92835
538.41	3.44266
541.785	5.95236
545.16	8.36679
548.534	5.66583
551.909	8.56744
555.284	7.22498
558.659	8.93008
562.034	5.62241
565.409	6.61136
568.783	5.24222
572.158	6.94846
575.533	1.65317
578.908	1.03506
582.283	2.28451
585.657	2.98297
589.032	1.5108
592.407	3.44736
595.782	0.209229
599.157	2.9841
602.532	0.251862
605.906	6.31699
609.281	6.22101
612.656	7.45627
616.031	9.18976
619.406	17.986
622.78	18.7605
626.155	24.3951
629.53	19.4846
632.905	23.4516
636.28	18.1031
639.654	12.63
643.029	6.1962
646.404	3.07977
649.779	2.12518
653.154	1.13
656.529	0.290466
659.903	3.08243
663.278	1.11762
666.653	3.70657
670.028	2.62189
673.403	6.34009
676.777	13.5361
680.152	25.8042
683.527	35.3702
686.902	50.3905
690.277	72.0137
693.652	99.8593
697.026	141.089
700.401	205.293
703.776	277.993
707.151	362.046
710.526	403.742
713.9	391.033
717.275	318.015
720.65	235.784
724.025	158.041
727.4	105.477
730.774	74.4176
734.149	43.0698
737.524	27.0151
740.899	15.9735
744.274	8.98688
747.649	5.35263
751.023	0.981598
754.398	2.09686
757.773	0.479767
761.148	0.123779
764.523	0.256256
767.898	3.44656
771.272	6.6369
774.647	11.5783
778.022	26.1606
781.397	34.7993
784.771	52.741
788.146	71.9913
791.521	91.7278
794.896	121.887
798.271	158.916
801.646	233.933
805.02	360.774
808.395	582.262
811.77	919.584
815.145	1113.93
818.52	843.314
821.894	474.204
825.269	247.452
828.644	139.783
832.019	83.0656
835.394	58.858
838.769	41.8713
842.143	34.2511
845.518	28.0435
848.893	23.5494
852.268	15.7727
855.643	13.7533
859.018	11.4806
862.392	7.55362
865.767	5.11475
869.142	2.04173
872.517	1.61043
875.891	1.34053
879.266	0.950058
882.641	3.29791
886.016	0.746048
889.391	3.29765
892.766	2.94412
896.14	0.531128
899.515	2.77673
902.89	0.146469
906.265	1.73566
909.64	0.804901
913.014	5.02864
916.389	0.601501
919.764	0.620483
923.139	0.375656
926.514	1.64795
929.889	1.05887
933.263	2.78746
936.638	6.61745
940.013	6.15619
943.388	1.93263
946.763	4.88646
950.138	4.54607
953.512	4.16449
956.887	4.42598
960.262	6.11289
963.637	3.7721
967.011	2.53836
970.386	3.40323
973.761	2.98512
977.136	1.32202
980.511	2.99725
983.886	6.10879
987.26	2.55212
990.635	1.8167
994.01	3.58258
997.385	1.29967
1000.76	3.80296
1004.13	2.27678
1007.51	3.88448
1010.88	2.5997
1014.26	4.74078
1017.63	2.6499
1021.01	0.991653
1024.38	1.94813
1027.76	1.62053
1031.13	1.16089
1034.51	2.20059
1037.88	4.20778
1041.26	3.1618
1044.63	1.40331
1048.01	3.60321
1051.38	1.27652
1054.76	4.03574
1058.13	4.40271
1061.51	1.8815
1064.88	4.63765
1068.26	4.7117
1071.63	1.66487
1075.01	1.81018
1078.38	1.87688
1081.76	2.26158
1085.13	3.3497
1088.51	5.30171
1091.88	2.53445
1095.26	2.00307
1098.63	0.063705
1102	1.42293
1105.38	5.28245
1108.75	2.34374
1112.13	0.528809
1115.5	2.34082
1118.88	1.68977
1122.25	4.38184
1125.63	0.659454
1129	0.064102
1132.38	2.61681
1135.75	2.7364
1139.13	1.97369
1142.5	1.79573
1145.88	2.86229
1149.25	2.66707
1152.63	4.46954
1156	7.35942
1159.38	2.60757
1162.75	4.57362
1166.13	3.11916
1169.5	3.03593
1172.88	3.05864
1176.25	6.80153
1179.62	5.50314
1183	2.86693
1186.38	4.39978
1189.75	4.91894
1193.12	6.64356
1196.5	1.32562
1199.87	1.06665
1203.25	6.27188
1206.62	4.55093
1210	1.81947
1213.37	2.8344
1216.75	1.49722
1220.12	2.82739
1223.5	1.2419
1226.87	0.130569
1230.25	2.99872
1233.62	0.21843
1237	3.98175
1240.37	3.47662
1243.75	3.87961
1247.12	3.0036
1250.5	2.40634
1253.87	3.44835
1257.25	5.69817
1260.62	7.9371
1263.99	3.29811
1267.37	4.90176
1270.74	2.68167
1274.12	8.07358
1277.49	0.463318
1280.87	6.21979
1284.24	0
