Measurement: Raman, 785 nm, unoriented, Raman Data Processed
Mineral: Wittichenite
Rruff sample: R050327
Ideal chemistry: Cu^1+^_3_Bi^3+^S^2-^_3_
Locality: Grube Daniel, Wittichen, Schwarzwald, Germany
Source: Marcus Origlieri
Description: Tin-white metallic blebs
Measured chemistry: Cu_3.00_Bi_1.00_S_3.00_
Raman shift (cm-1)	intensity
179.382	19.57
182.275	10.943
185.167	21.633
188.06	11.836
190.953	7.826
193.846	11.149
196.738	15.989
199.631	16.778
202.524	15.339
205.416	12.852
208.309	8.815
211.202	0.155
214.094	6.64
216.987	11.717
219.88	19.687
222.773	59.633
225.665	66.894
228.558	70.596
231.451	77.122
234.343	115.441
237.236	157.292
240.129	143.886
243.021	195.36
245.914	237.133
248.807	313.635
251.699	316.587
254.592	443.669
257.485	516.273
260.378	580.996
263.27	573.259
266.163	686.32
269.056	714.441
271.948	755.67
274.841	805.857
277.734	891.928
280.626	979.472
283.519	1071.56
286.412	1107.78
289.305	1097.61
292.197	990.062
295.09	847.258
297.983	698.161
300.875	575.044
303.768	469.432
306.661	406.124
309.553	376.962
312.446	270.278
315.339	199.89
318.232	192.802
321.124	141.101
324.017	175.146
326.91	120.151
329.802	159.838
332.695	102.08
335.588	106.074
338.48	43.197
341.373	23.831
344.266	20.742
347.159	25.271
350.051	14.845
352.944	15.989
355.837	2.787
358.729	8.995
361.622	2.975
364.515	28.482
367.408	3.172
370.3	5.885
373.193	11.069
376.086	17.065
378.978	23.585
381.871	30.753
384.764	32.123
387.656	17.191
390.549	34.729
393.442	6.754
396.335	25.231
399.227	24.413
402.12	11.892
405.013	28.646
407.905	18.109
410.798	18.028
413.691	24.721
416.583	19.006
419.476	28.067
422.369	21.932
425.262	10.756
428.154	4.746
431.047	15.44
433.94	34.42
436.832	21.785
439.725	35.259
442.618	10.091
445.51	6.617
448.403	21.698
451.296	14.968
454.189	19.159
457.081	28.686
459.974	55.58
462.867	34.419
465.759	16.372
468.652	25.688
471.545	20.892
474.437	16.141
477.33	19.666
480.223	23.622
483.116	28.234
486.008	19.806
488.901	31.08
491.794	19.053
494.686	0.9
497.579	26.668
500.472	53.041
503.364	31.068
506.257	10.072
509.15	30.089
512.042	32.542
514.935	35.796
517.828	33.042
520.721	29.109
523.613	45.508
526.506	44.281
529.399	64.837
532.291	21.879
535.184	14.397
538.077	62.595
540.969	40.832
543.862	29.468
546.755	45.729
549.648	46.516
552.54	42.429
555.433	92.658
558.326	25.611
561.218	15.902
564.111	46.164
567.004	13.43
569.896	57.064
572.789	76.967
575.682	11.505
578.575	39.163
581.467	44.964
584.36	12.899
587.253	12.316
590.145	49.007
593.038	78.085
595.931	46.143
598.823	24.046
601.716	74.867
604.609	12.575
607.502	38.243
610.394	29.733
613.287	71.016
616.18	70.777
619.072	70.994
621.965	72.104
624.858	47.413
627.75	64.757
630.643	19.151
633.536	38.193
636.429	35.458
639.321	38.92
642.214	0.055
645.107	33.44
647.999	74.555
650.892	57.748
653.785	29.255
656.677	44.895
659.57	70.588
662.463	32.755
665.356	17.301
668.248	73.82
671.141	36.449
674.034	48.356
676.926	43.475
679.819	98.234
682.712	4.216
685.604	13.581
688.497	4.028
691.39	34.273
694.283	0.157
697.175	3.483
700.068	16.671
702.961	26.36
705.853	28.614
708.746	31.633
711.639	24.745
714.531	18.98
717.424	13.226
720.317	6.413
723.21	12.107
726.102	74.956
728.995	45.187
731.888	35.465
734.78	62.273
737.673	12.391
740.566	68.146
743.458	23.765
746.351	56.921
749.244	20.951
752.137	35.456
755.029	11.554
757.922	32.397
760.815	29.591
763.707	2.676
766.6	21.966
769.493	30.131
772.385	39.252
775.278	70.088
778.171	5.948
781.064	16.255
783.956	79.227
786.849	44.148
789.742	46.988
792.634	9.825
795.527	76.132
798.42	54.409
801.312	53.469
804.205	1.644
807.098	19.157
809.991	5.087
812.883	22.12
815.776	4.649
818.669	55.523
821.561	45.81
824.454	71.762
827.347	33.37
830.24	51.63
833.132	43.963
836.025	51.315
838.918	51.677
841.81	76.429
844.703	32.778
847.596	40.436
850.488	47.794
853.381	21.214
856.274	23.35
859.167	37.505
862.059	5.401
864.952	28.086
867.845	17.436
870.737	12.255
873.63	41.794
876.523	40.636
879.415	22.386
882.308	24.733
885.201	3.177
888.094	63.586
890.986	39.074
893.879	6.357
896.772	58.271
899.664	10.133
902.557	29.699
905.45	33.853
908.342	38.449
911.235	43.694
914.128	49.235
917.021	53.502
919.913	55.372
922.806	58.37
925.699	45.962
928.591	75.637
931.484	31.062
934.377	22.61
937.269	1.678
940.162	32.2
943.055	22.586
945.948	28.709
948.84	35.302
951.733	3.665
954.626	45.338
957.518	18.252
960.411	22.897
963.304	33.503
966.196	8.092
969.089	79.463
971.982	32.967
974.875	47.501
977.767	52.136
980.66	18.676
983.553	54.375
986.445	122.369
989.338	92.605
992.231	78.725
995.123	58.982
998.016	12.487
1000.91	15.924
1003.8	45.387
1006.69	8.246
1009.59	37.194
1012.48	10.096
1015.37	40.328
1018.26	51.598
1021.16	51.892
1024.05	56.263
1026.94	56.803
1029.84	58.269
1032.73	65.098
1035.62	55.065
1038.51	62.039
1041.41	60.752
1044.3	59.754
1047.19	0.115
1050.09	57.453
1052.98	61.341
1055.87	10.22
1058.76	55.708
1061.66	27.858
1064.55	51.319
1067.44	10.105
1070.33	16.534
1073.23	5.533
1076.12	31.621
1079.01	61.216
1081.9	58.415
1084.8	18.148
1087.69	49.344
1090.58	34.149
1093.47	66.097
1096.37	13.301
1099.26	69.906
1102.15	51.523
1105.05	31.016
1107.94	21.746
1110.83	15.53
1113.72	34.445
1116.62	70.481
1119.51	49.904
1122.4	15.137
1125.3	20.357
1128.19	34.319
1131.08	35.607
1133.97	12.528
1136.87	66.88
1139.76	57.311
1142.65	12.165
1145.54	10.376
1148.44	27.013
1151.33	64.424
1154.22	14.052
1157.12	45.388
1160.01	64.312
1162.9	53.538
1165.79	37.335
1168.68	38.315
1171.58	34.392
1174.47	23.837
1177.36	3.201
1180.26	44
1183.15	35.26
1186.04	11.988
1188.93	9.059
1191.83	33.745
1194.72	24.676
1197.61	45.589
1200.51	61.673
1203.4	22.23
1206.29	1.844
1209.18	2.595
1212.08	29.357
1214.97	77.046
1217.86	23.896
1220.75	11.747
1223.65	27.166
1226.54	13.621
1229.43	70.929
1232.33	17.582
1235.22	1.789
1238.11	52.962
1241	39.801
1243.9	35.6
1246.79	96.642
1249.68	44.771
1252.57	117.842
1255.47	94.605
1258.36	100.405
