Measurement: Raman, 532 nm, unoriented, Raman Data Processed
Mineral: Yeatmanite
Rruff sample: R141001
Ideal chemistry: Zn^2+^_6_Mn^2+^_9_Sb^5+^_2_O_12_(SiO_4_)_4_
Locality: 1500 foot level, Sterling mine, Sterling Hill, Ogdensburg, Franklin Mining District, Sussex County, New Jersey, USA
Source: Rock Currier
Description: Thin brown or grey platy crystals, associated with yellow adelite. Twinned by a 2-fold around (001). Previously published structure is probably incorrect.
Raman shift (cm-1)	intensity
140.687	0
144.062	2.65094
147.437	10.1365
150.812	2.90356
154.187	9.99725
157.561	4.56702
160.936	1.45642
164.311	5.68854
167.686	2.33624
171.061	5.80536
174.436	1.85754
177.81	3.73358
181.185	11.1613
184.56	17.9477
187.935	21.7709
191.31	21.8297
194.685	20.163
198.059	24.1233
201.434	20.481
204.809	16.3925
208.184	13.6238
211.559	9.24945
214.933	8.79108
218.308	5.15393
221.683	3.159
225.058	3.70776
228.433	0.648438
231.808	0.724854
235.182	2.36621
238.557	4.72498
241.932	4.67096
245.307	8.73169
248.682	11.9152
252.056	13.9864
255.431	15.8967
258.806	17.0646
262.181	21.4062
265.556	21.5892
268.93	22.3453
272.305	27.9233
275.68	34.5551
279.055	34.4356
282.43	33.8868
285.805	32.6136
289.179	27.2735
292.554	24.9154
295.929	16.717
299.304	12.8592
302.679	14.55
306.053	11.0072
309.428	9.55121
312.803	3.85455
316.178	7.39221
319.553	8.33997
322.928	6.41431
326.302	7.96539
329.677	6.6825
333.052	4.09268
336.427	8.02167
339.802	0.647461
343.176	0.879456
346.551	3.27084
349.926	2.3233
353.301	1.60083
356.676	6.51761
360.051	5.00848
363.425	9.2309
366.8	10.8722
370.175	10.4263
373.55	11.6424
376.925	10.2733
380.3	9.52408
383.674	6.97852
387.049	6.36069
390.424	4.80484
393.799	1.78696
397.174	5.17215
400.548	2.08279
403.923	2.47644
407.298	0.25943
410.673	0.160675
414.048	1.89273
417.423	0.385193
420.797	0.163666
424.172	0.598694
427.547	1.56055
430.922	2.50269
434.296	2.31305
437.671	6.0235
441.046	9.24481
444.421	11.0096
447.796	16.9908
451.171	16.8685
454.545	27.3065
457.92	34.4116
461.295	40.3213
464.67	40.2016
468.045	43.386
471.42	49.5965
474.794	54.0103
478.169	57.8912
481.544	63.4722
484.919	67.2046
488.294	64.592
491.668	55.0366
495.043	45.9711
498.418	43.3571
501.793	47.6804
505.168	51.8149
508.543	64.4188
511.917	83.5173
515.292	108.611
518.667	137.078
522.042	138.813
525.417	123.97
528.791	85.9231
532.166	59.7403
535.541	43.2026
538.916	31.1255
542.291	26.9603
545.665	21.894
549.04	13.7826
552.415	5.65546
555.79	1.1861
559.165	0.643921
562.54	4.93457
565.914	1.02325
569.289	1.85846
572.664	4.80487
576.039	7.75201
579.414	5.68713
582.788	10.8795
586.163	8.81543
589.538	6.935
592.913	1.4928
596.288	1.17035
599.663	2.28754
603.037	2.99493
606.412	6.72247
609.787	16.085
613.162	22.9155
616.537	34.0372
619.912	48.8019
623.286	58.9828
626.661	63.0475
630.036	60.0159
633.411	57.7993
636.786	64.3865
640.16	76.6528
643.535	87.1044
646.91	90.4413
650.285	81.3748
653.66	64.363
657.034	73.6598
660.409	97.9152
663.784	148.332
667.159	208.752
670.534	275.348
673.909	331.85
677.283	323.996
680.658	257.386
684.033	165.563
687.408	106.49
690.783	70.8326
694.158	45.7446
697.532	33.5087
700.907	25.3978
704.282	17.9728
707.657	16.0494
711.032	10.5183
714.406	8.56201
717.781	4.53253
721.156	2.31415
724.531	3.46515
727.906	1.88757
731.28	1.26459
734.655	0.424072
738.03	2.80414
741.405	2.40631
744.78	0.331909
748.154	0.158569
751.529	1.89014
754.904	3.41949
758.279	1.70868
761.654	1.0022
765.029	1.17261
768.403	1.3576
771.778	5.6864
775.153	7.2226
778.528	8.23804
781.903	7.60907
785.278	8.59106
788.652	9.94745
792.027	7.77362
795.402	8.3905
798.777	5.47943
802.152	7.79919
805.526	10.9985
808.901	12.8261
812.276	13.145
815.651	15.996
819.026	18.9514
822.4	16.1483
825.775	20.9864
829.15	22.8569
832.525	22.1149
835.9	26.4853
839.275	30.7336
842.649	36.5183
846.024	42.3282
849.399	55.3165
852.774	66.8896
856.149	78.2284
859.524	96.4879
862.898	106.031
866.273	110.552
869.648	103.651
873.023	85.9925
876.398	59.4523
879.773	42.4091
883.147	29.3765
886.522	18.3662
889.897	12.9877
893.272	10.7725
896.646	8.60242
900.021	6.60107
903.396	2.08984
906.771	3.43433
910.146	4.61072
913.521	5.159
916.895	5.0437
920.27	4.28253
923.645	4.11261
927.02	3.40698
930.395	4.99194
933.769	4.00433
937.144	3.45679
940.519	2.16492
943.894	0.269287
947.269	0.948853
950.644	2.30914
954.018	0.737488
957.393	1.88593
960.768	2.38769
964.143	2.89526
967.518	0.039673
970.893	1.37726
974.267	0.875366
977.642	5.00464
981.017	1.25342
984.392	4.86725
987.767	1.74908
991.141	3.61902
994.516	3.94348
997.891	0.047119
1001.27	3.39783
1004.64	3.46551
1008.02	2.18457
1011.39	3.51623
1014.76	4.68024
1018.14	7.94702
1021.51	2.68146
1024.89	6.35016
1028.26	4.12927
1031.64	6.74341
1035.01	6.98871
1038.39	7.77765
1041.76	9.69629
1045.14	9.45312
1048.51	9.33935
1051.89	7.40228
1055.26	6.60852
1058.64	4.76422
1062.01	5.05377
1065.39	6.60791
1068.76	3.47961
1072.14	4.65356
1075.51	4.76678
1078.89	6.58331
1082.26	7.59802
1085.64	5.19391
1089.01	5.64996
1092.39	8.06757
1095.76	4.56525
1099.14	4.98407
1102.51	3.02905
1105.88	4.25275
1109.26	3.40076
1112.63	7.5509
1116.01	5.86676
1119.38	6.15564
1122.76	1.72406
1126.13	2.43127
1129.51	2.11566
1132.88	0.176025
1136.26	0.892578
1139.63	1.3786
1143.01	2.85785
1146.38	3.20355
1149.76	0.264465
1153.13	1.68414
1156.51	1.7027
1159.88	5.44281
1163.26	4.78418
1166.63	5.12988
1170.01	5.68536
1173.38	3.14844
1176.76	5.34039
1180.13	3.3335
1183.51	5.60346
1186.88	2.52972
1190.26	2.5069
1193.63	5.19128
1197.01	1.58038
1200.38	0.839966
1203.76	2.54254
1207.13	4.56903
1210.51	3.55664
1213.88	3.9118
1217.25	4.2583
1220.63	3.42932
1224	6.13513
1227.38	3.55719
1230.75	1.68799
1234.13	2.93158
1237.5	4.6554
1240.88	9.7522
1244.25	0.145325
1247.63	4.82257
1251	1.69275
1254.38	1.31708
1257.75	4.88324
1261.13	5.232
1264.5	2.00287
1267.88	4.59747
1271.25	3.31158
1274.63	2.80951
1278	1.85242
1281.38	2.58838
1284.75	3.60681
1288.12	3.84412
1291.5	4.42621
1294.88	0.380981
1298.25	5.21991
