Measurement: Raman, 780 nm, unoriented, Raman Data Processed
Mineral: Yttrium aluminum garnet
Rruff sample: R110105
Ideal chemistry: Y_3_Al_2_(AlO_4_)_3_
Locality: Synthetic
Source: Gemological Institute of America
Description: A cut, green (2.71ct) gemstone, grown by crystal pulling
Raman shift (cm-1)	intensity
94.4962	1275.56
97.871	1040.86
101.246	850.206
104.621	735.893
107.996	661.568
111.37	603.108
114.745	552.742
118.12	506.88
121.495	468.351
124.87	437.988
128.244	413.331
131.619	393.604
134.994	378.529
138.369	364.374
141.744	359.374
145.119	353.268
148.493	335.413
151.868	324.638
155.243	322.828
158.618	330.727
161.993	369.527
165.367	334.491
168.742	323.593
172.117	328.873
175.492	345.779
178.867	365.042
182.242	397.183
185.616	442.071
188.991	494.234
192.366	549.823
195.741	591.606
199.115	630.525
202.49	668.038
205.865	679.878
209.24	621.115
212.615	538.317
215.99	470.561
219.364	427.785
222.739	373.186
226.114	351.15
229.489	341.971
232.864	340.537
236.238	344.659
239.613	355.868
242.988	369.179
246.363	382.59
249.738	409.109
253.113	446.568
256.487	515.734
259.862	623.566
263.237	614.94
266.612	600.943
269.987	646.026
273.361	696.929
276.736	748.331
280.111	790.722
283.486	820.326
286.861	837.392
290.236	847.493
293.61	845.656
296.985	817.922
300.36	771.621
303.735	725.348
307.11	676.231
310.485	628.809
313.859	586.507
317.234	552.569
320.609	520.42
323.984	505.135
327.359	491.007
330.733	487.793
334.108	490.333
337.483	506.846
340.858	515.972
344.233	520.062
347.608	535.89
350.982	561.548
354.357	593.572
357.732	622.638
361.107	666.84
364.482	724.284
367.856	830.823
371.231	940.396
374.606	970.066
377.981	1021.44
381.356	1082.86
384.731	1106.57
388.105	1083.51
391.48	1040.37
394.855	985.612
398.23	957.319
401.605	942.18
404.979	888.97
408.354	813.789
411.729	728.514
415.104	668.561
418.479	619.862
421.853	590.787
425.228	568.34
428.603	557.209
431.978	557.693
435.353	568.341
438.728	585.988
442.102	614.367
445.477	625.266
448.852	608.683
452.227	560.941
455.602	504.059
458.976	459.511
462.351	423.195
465.726	391.805
469.101	370.451
472.476	344.142
475.851	328.89
479.225	314.132
482.6	304.703
485.975	297.272
489.35	292.347
492.725	288.881
496.099	283.748
499.474	280.548
502.849	282.945
506.224	280.193
509.599	280.058
512.973	281.306
516.348	284.75
519.723	280.141
523.098	279.85
526.473	279.832
529.848	279.695
533.222	280.456
536.597	283.295
539.972	285.744
543.347	292.715
546.722	292.707
550.096	291.893
553.471	295.634
556.846	303.556
560.221	309.171
563.596	311.544
566.971	319.92
570.345	326.108
573.72	335.591
577.095	343.994
580.47	355.457
583.845	361.979
587.22	367.629
590.594	373.693
593.969	383.729
597.344	394.921
600.719	410.933
604.094	426.149
607.468	445.274
610.843	465.651
614.218	488.369
617.593	506.376
620.968	526.153
624.342	540.014
627.717	550.271
631.092	561.374
634.467	570.344
637.842	576.071
641.217	579.743
644.591	582.912
647.966	582.506
651.341	571.871
654.716	567.288
658.091	557.597
661.466	549.825
664.84	539.664
668.215	527.817
671.59	518.003
674.965	498.936
678.34	482.773
681.714	466.202
685.089	450.058
688.464	431.219
691.839	412.332
695.214	391.453
698.588	367.535
701.963	352.401
705.338	342.181
708.713	336.914
712.088	331.015
715.463	328.678
718.837	325.804
722.212	309.802
725.587	297.038
728.962	294.474
732.337	292.851
735.712	292.385
739.086	293.838
742.461	295.311
745.836	295.335
749.211	298.555
752.586	301.19
755.96	307.056
759.335	312.908
762.71	319.22
766.085	329.329
769.46	340.715
772.835	359.796
776.209	382.699
779.584	410.843
782.959	420.161
786.334	399.18
789.709	378.269
793.083	367.785
796.458	354.398
799.833	344.862
803.208	330.35
806.583	319.717
809.957	310.267
813.332	295.374
816.707	286.701
820.082	279.323
823.457	270.254
826.832	261.203
830.206	255.589
833.581	248.394
836.956	242.986
840.331	234.36
843.706	229.256
847.08	221.941
850.455	214.389
853.83	207.552
857.205	201.925
860.58	190.611
863.955	180.448
867.329	171.056
870.704	164.184
874.079	158.2
877.454	150.823
880.829	145.784
884.203	142.238
887.578	136.979
890.953	132.563
894.328	130.775
897.703	125.016
901.077	123.863
904.452	120.492
907.827	118.466
911.202	116.17
914.577	112.575
917.952	111.705
921.326	109.27
924.701	109.143
928.076	105.82
931.451	104.561
934.826	104.198
938.201	101.305
941.575	98.5991
944.95	96.362
948.325	93.9083
951.7	92.1008
955.075	89.3859
958.449	87.299
961.824	85.3675
965.199	83.5637
968.574	81.4857
971.949	77.6265
975.323	77.936
978.698	75.8218
982.073	74.9327
985.448	73.9033
988.823	72.6687
992.198	70.1583
995.572	69.6537
998.947	67.6425
1002.32	67.6923
1005.7	66.0435
1009.07	65.8878
1012.45	63.7513
1015.82	63.6861
1019.2	63.7803
1022.57	62.0838
1025.95	61.4321
1029.32	61.0221
1032.69	59.9392
1036.07	60.0772
1039.44	59.6842
1042.82	59.8964
1046.19	59.0012
1049.57	58.0326
1052.94	57.0901
1056.32	57.2037
1059.69	55.4143
1063.07	55.4563
1066.44	55.766
1069.82	55.4687
1073.19	54.5287
1076.57	54.5164
1079.94	54.1995
1083.32	55.2743
1086.69	56.6383
1090.07	58.9222
1093.44	59.3701
1096.82	59.2692
1100.19	55.5789
1103.57	51.8965
1106.94	50.3618
1110.32	49.3514
1113.69	48.9559
1117.07	48.1335
1120.44	47.8473
1123.82	46.9822
1127.19	46.4218
1130.57	46.8719
1133.94	46.8443
1137.32	46.1673
1140.69	46.2438
1144.06	45.8287
1147.44	45.7135
1150.81	44.8349
1154.19	45.1707
1157.56	44.3172
1160.94	43.804
1164.31	43.1493
1167.69	43.4751
1171.06	44.199
1174.44	43.842
1177.81	43.1117
1181.19	43.2592
1184.56	43.6289
1187.94	43.3451
1191.31	43.3322
1194.69	43.4104
1198.06	42.8587
1201.44	44.1447
1204.81	43.9514
1208.19	42.4738
1211.56	42.797
1214.94	43.0125
1218.31	42.8203
1221.68	43.9606
1225.06	43.9574
1228.43	44.8867
1231.81	46.7316
1235.18	48.6343
1238.56	49.2787
1241.93	47.0428
1245.31	46.0155
1248.68	46.8584
1252.06	44.5754
1255.43	44.9551
1258.81	46.4202
1262.18	48.0755
1265.56	48.7378
1268.93	50.926
1272.31	52.7908
1275.68	55.1292
1279.06	60.37
1282.43	68.7011
1285.81	78.702
