Measurement: Raman, 780 nm, unoriented, Raman Data Processed
Mineral: Annite
Rruff sample: R060211
Ideal chemistry: KFe^2+^_3_AlSi_3_O_10_(OH)_2_
Locality: Mont Saint-Hilaire, Rouville County, Quebec, Canada
Source: Royal Ontario Museum
Description: Black platy fragment
Measured chemistry: (K_0.94_[box]_0.03_Na_0.02_)(Fe^2+^_2.07_Mg_0.57_Mn_0.33_Ti_0.03_)(Si_2.98_Al_1.02_)O_10_((OH)_1.72_F_0.28_)
Raman shift (cm-1)	intensity
109.278	0
112.652	0.078979
116.027	5.01013
119.402	0.813019
122.777	5.25561
126.152	0.372009
129.526	4.06482
132.901	1.78766
136.276	2.27194
139.651	9.72974
143.026	5.25851
146.401	7.90146
149.775	8.34384
153.15	10.1425
156.525	9.03153
159.9	5.54672
163.275	4.21973
166.649	0.861145
170.024	4.01721
173.399	0.343994
176.774	2.67523
180.149	2.05264
183.524	1.11783
186.898	1.0795
190.273	0.119766
193.648	0.415482
197.023	1.18306
200.398	1.62885
203.773	3.43329
207.147	4.70868
210.522	5.68333
213.897	7.73363
217.272	8.37962
220.647	8.26451
224.021	10.8749
227.396	12.0063
230.771	13.238
234.146	14.0932
237.521	14.7617
240.895	15.7835
244.27	16.3313
247.645	15.2056
251.02	12.8808
254.395	13.2266
257.769	12.7598
261.144	12.189
264.519	11.341
267.894	10.303
271.269	7.02759
274.644	9.3815
278.018	8.13545
281.393	6.47523
284.768	4.88588
288.143	4.61966
291.518	3.78468
294.892	2.79251
298.267	0.965057
301.642	1.07364
305.017	0.482834
308.392	0.118866
311.767	0.300674
315.141	0.40239
318.516	0.651093
321.891	0.747116
325.266	0.266602
328.641	0.268234
332.015	1.14829
335.39	0.336105
338.765	1.60936
342.14	1.73506
345.515	2.29808
348.89	2.64531
352.264	2.77231
355.639	3.06509
359.014	3.08907
362.389	3.21577
365.764	3.28861
369.139	4.03906
372.513	2.89345
375.888	3.01543
379.263	3.83736
382.638	3.00009
386.013	2.63409
389.387	5.77679
392.762	4.82752
396.137	5.86661
399.512	5.78545
402.887	6.48682
406.262	5.88265
409.636	4.80276
413.011	5.30997
416.386	5.22019
419.761	3.48861
423.136	4.10484
426.51	4.75517
429.885	2.63524
433.26	2.46595
436.635	0.461067
440.01	0.366646
443.385	0.477936
446.759	0.473503
450.134	0.413361
453.509	0.154549
456.884	1.02372
460.259	2.05772
463.633	3.79987
467.008	4.95855
470.383	7.06072
473.758	8.62003
477.133	11.2693
480.507	13.7722
483.882	16.3733
487.257	18.0146
490.632	21.3659
494.007	23.1288
497.382	24.5505
500.756	27.1466
504.131	27.4259
507.506	27.7618
510.881	28.355
514.256	27.9326
517.63	26.6451
521.005	26.2591
524.38	24.9782
527.755	23.0223
531.13	22.5141
534.505	19.3091
537.879	18.7555
541.254	16.0265
544.629	13.8235
548.004	11.5152
551.379	9.9667
554.753	7.76792
558.128	5.72825
561.503	4.51825
564.878	3.56158
568.253	1.68704
571.628	1.58977
575.002	0.221031
578.377	0.006264
581.752	0.234299
585.127	0.721756
588.502	0.623062
591.876	0.59269
595.251	0.260056
598.626	0.202682
602.001	0.098244
605.376	0.862076
608.75	0.344254
612.125	0.302872
615.5	0.126801
618.875	0.154533
622.25	0.951706
625.625	0.107124
629	0.040771
632.374	0.31337
635.749	0.063782
639.124	0.918312
642.499	0.568672
645.874	1.11823
649.248	1.81704
652.623	2.02908
655.998	3.38817
659.373	4.54864
662.748	6.08047
666.122	7.2459
669.497	9.09163
672.872	9.11727
676.247	7.92373
679.622	4.61607
682.996	2.99668
686.371	1.35796
689.746	0.364265
693.121	0.42955
696.496	0.619194
699.871	0.978004
703.245	1.11997
706.62	2.5159
709.995	2.83121
713.37	3.92693
716.745	5.87439
720.12	5.16509
723.494	4.42952
726.869	5.57518
730.244	4.72574
733.619	3.87231
736.994	4.21603
740.368	4.08791
743.743	4.68196
747.118	6.45309
750.493	6.31686
753.868	6.64853
757.242	7.97469
760.617	9.59785
763.992	8.75044
767.367	9.26361
770.742	9.48041
774.117	8.26025
777.491	7.70564
780.866	7.20551
784.241	6.22347
787.616	5.39876
790.991	4.49742
794.365	3.10598
797.74	2.05427
801.115	1.85702
804.49	1.12452
807.865	0.272148
811.24	0.030212
814.614	0.090553
817.989	0.416435
821.364	0.692894
824.739	0.586742
828.114	0.667721
831.489	0.240139
834.863	0.4995
838.238	1.2119
841.613	1.35731
844.988	1.30085
848.362	1.01876
851.737	1.25526
855.112	2.24419
858.487	1.87492
861.862	2.9326
865.237	3.68229
868.611	3.70064
871.986	3.81913
875.361	4.25124
878.736	4.1012
882.111	4.19945
885.486	3.92164
888.86	3.03079
892.235	3.56873
895.61	2.85897
898.985	3.32754
902.36	3.10052
905.734	3.19178
909.109	2.35007
912.484	3.19537
915.859	3.61383
919.234	4.94288
922.609	3.24288
925.983	2.82899
929.358	3.30216
932.733	2.65519
936.108	3.64211
939.483	2.24245
942.857	2.53666
946.232	1.32557
949.607	2.34784
952.982	1.6384
956.357	1.94042
959.731	1.23707
963.106	0.93911
966.481	1.25616
969.856	0.390327
973.231	0.19714
976.606	0.125832
979.98	0.053539
983.355	0.127937
986.73	0.035057
990.105	0.152248
993.48	1.35913
996.855	0.0555
1000.23	0.269958
1003.6	0.235527
1006.98	0.559483
1010.35	0.757553
1013.73	1.88078
1017.1	1.747
1020.48	1.52626
1023.85	1.6348
1027.23	2.28458
1030.6	2.22757
1033.98	1.25603
1037.35	1.58992
1040.73	1.0777
1044.1	1.39391
1047.48	3.11541
1050.85	1.12431
1054.23	2.07838
1057.6	1.55291
1060.98	2.41331
1064.35	2.36976
1067.73	2.03388
1071.1	3.14644
1074.47	2.2105
1077.85	2.76826
1081.22	2.19976
1084.6	2.31352
1087.97	2.00187
1091.35	1.10671
1094.72	1.58224
1098.1	1.14108
1101.47	0.192196
1104.85	0.549191
1108.22	0.224758
1111.6	0.559673
1114.97	1.31269
1118.35	0.332329
1121.72	0.203842
1125.1	0.107536
1128.47	1.36572
1131.85	0.640469
1135.22	0.512199
1138.6	0.209877
1141.97	0.756557
1145.35	0.377438
1148.72	0.761726
1152.1	0.487076
1155.47	1.89103
1158.85	0.649471
1162.22	0.869392
1165.6	0.767487
1168.97	0.328728
1172.35	1.11654
1175.72	0.37225
1179.1	1.42653
1182.47	1.08173
1185.84	0.927383
1189.22	0.912399
1192.59	1.40759
1195.97	0.604198
1199.34	0.948788
1202.72	0.642094
1206.09	0.843697
1209.47	0.15337
1212.84	1.22614
1216.22	1.26216
1219.59	1.08356
1222.97	1.04968
1226.34	1.07335
1229.72	1.08432
1233.09	0.132183
1236.47	0.16486
1239.84	0.475483
1243.22	0.417995
1246.59	0.754101
1249.97	1.1868
1253.34	0.651546
1256.71	0.892979
1260.09	0.662464
1263.46	0.747089
1266.84	0.337296
1270.21	0.03672
1273.59	0.781864
1276.96	0.759594
1280.34	0.083427
