Measurement: Raman, 785 nm, unoriented, Raman Data Processed
Mineral: Bianchite
Rruff sample: R070020
Ideal chemistry: Zn^2+^S^6+^O_4_6H_2_O
Locality: Equatorial part of Midatlantic Ridge, 5000 m depth, Atlantic Ocean
Source: Michael Scott
Description: White efflorescence associated with wurtzite
Raman shift (cm-1)	intensity
246.178	0
249.071	8.30469
251.963	75.9062
254.856	182.125
257.749	233.656
260.642	515.016
263.534	450.969
266.427	703.242
269.32	682.594
272.212	547.602
275.105	765.453
277.998	679.57
280.89	726.172
283.783	1033.64
286.676	852.336
289.568	770.656
292.461	685.109
295.354	521.367
298.247	406.625
301.139	451.617
304.032	631.648
306.925	656.984
309.817	597.961
312.71	607.234
315.603	476.453
318.495	273.82
321.388	417.984
324.281	363.656
327.174	523
330.066	409.68
332.959	470.281
335.852	256.828
338.744	181.344
341.637	91.6641
344.53	57.875
347.423	188.188
350.315	287.141
353.208	439.711
356.101	201.188
358.993	157.531
361.886	319.914
364.779	7.84375
367.671	153.422
370.564	251.93
373.457	211.727
376.349	326.258
379.242	273.812
382.135	11.7109
385.028	13.6484
387.92	50.3359
390.813	83.3594
393.706	173.609
396.598	312.375
399.491	305.445
402.384	104.719
405.276	276.938
408.169	351.32
411.062	282.133
413.955	723.43
416.847	929.727
419.74	1130.02
422.633	1337.84
425.525	1143.67
428.418	607.203
431.311	282.812
434.204	51.25
437.096	145.406
439.989	136.312
442.882	6.96094
445.774	84.2969
448.667	8.14062
451.56	98.0625
454.452	17.7188
457.345	232.984
460.238	86.9062
463.13	149.055
466.023	95.2891
468.916	440
471.809	547.211
474.701	349.062
477.594	239.445
480.487	200.555
483.379	443.031
486.272	338.359
489.165	554.047
492.058	724.633
494.95	741.43
497.843	475.664
500.736	424.508
503.628	641.547
506.521	679.68
509.414	544.258
512.307	392.523
515.199	462.953
518.092	173.57
520.985	116.055
523.877	184.227
526.77	69.4609
529.663	24.3828
532.555	131.352
535.448	246.727
538.341	52.2734
541.234	257.477
544.126	310.547
547.019	128.336
549.912	39.8438
552.804	28.9766
555.697	102.797
558.59	28.1562
561.482	337.945
564.375	202.141
567.268	446.969
570.16	102.125
573.053	176.445
575.946	116.586
578.839	197.086
581.731	409.719
584.624	239.305
587.517	245.055
590.409	340.461
593.302	118.07
596.195	296.977
599.087	266.891
601.98	291.586
604.873	445.984
607.766	198.008
610.658	551.023
613.551	614.336
616.444	547.758
619.336	799.766
622.229	1037.45
625.122	930.531
628.014	905.648
630.907	766.32
633.8	315.359
636.693	353.242
639.585	335.938
642.478	282.695
645.371	233.281
648.263	261.602
651.156	299.961
654.049	403.109
656.942	323.312
659.834	280.781
662.727	331.148
665.62	53.5781
668.512	206.492
671.405	81.0156
674.298	192.852
677.19	179.203
680.083	98.0859
682.976	390.914
685.869	184.344
688.761	8.10156
691.654	58.1719
694.547	304.5
697.439	408.273
700.332	233.844
703.225	459.664
706.117	344.891
709.01	296.109
711.903	259.68
714.795	200.25
717.688	389.781
720.581	443.391
723.474	283.68
726.366	201.625
729.259	286.875
732.152	276.398
735.044	266.156
737.937	59.2422
740.83	208.312
743.722	394.625
746.615	316.359
749.508	444.961
752.401	240.773
755.293	26.4531
758.186	216.594
761.079	186.195
763.971	396.961
766.864	186.539
769.757	81.6172
772.649	41.8047
775.542	146.414
778.435	374.992
781.328	254.812
784.22	125.242
787.113	49.5625
790.006	242.883
792.898	15.0625
795.791	74.7891
798.684	223.07
801.577	70.8359
804.469	162.422
807.362	129.852
810.255	8.63281
813.147	265.445
816.04	351.273
818.933	94.3438
821.825	159.195
824.718	173.328
827.611	92.7188
830.504	192.617
833.396	181.062
836.289	171.336
839.182	106.406
842.074	42.4766
844.967	283.875
847.86	179.352
850.752	158.391
853.645	117.484
856.538	320.594
859.431	317.375
862.323	168.359
865.216	226.938
868.109	210.859
871.001	189.453
873.894	112.055
876.787	129.969
879.679	190
882.572	357.008
885.465	158.32
888.357	241.875
891.25	152.031
894.143	144.281
897.036	108.609
899.928	277.312
902.821	127.766
905.714	155.719
908.606	276.852
911.499	184.656
914.392	209.508
917.284	189.547
920.177	116.664
923.07	16.3047
925.963	151.336
928.855	90.4141
931.748	90.6641
934.641	186.555
937.534	112.203
940.426	65.6016
943.319	56.6484
946.212	51.4609
949.104	84.5391
951.997	106.266
954.89	215.898
957.782	24.7266
960.675	5.08594
963.568	170.719
966.461	17.3672
969.353	59.1641
972.246	32.4375
975.139	40.6016
978.031	102.766
980.924	69.4609
983.817	134.484
986.709	56.75
989.602	284.242
992.495	125.797
995.388	241.766
998.28	383.234
1001.17	329.383
1004.07	524.672
1006.96	490.352
1009.85	770.008
1012.74	1080.44
1015.64	1286.58
1018.53	2205.56
1021.42	2962.12
1024.31	3445.81
1027.21	3335.46
1030.1	2429.98
1032.99	1708.73
1035.88	1155.65
1038.78	700.172
1041.67	64.125
1044.56	118.641
1047.46	121.352
1050.35	100.062
1053.24	272.5
1056.13	168.914
1059.03	182.828
1061.92	289.352
1064.81	303.875
1067.7	393.578
1070.6	531.078
1073.49	692.25
1076.38	762.938
1079.28	465.234
1082.17	618.188
1085.06	477.773
1087.95	473.352
1090.85	398.031
1093.74	125.008
1096.63	144.078
1099.53	124.672
1102.42	156.578
1105.31	137.602
1108.2	58.5859
1111.1	184.781
1113.99	166.398
1116.88	65.1406
1119.77	106.984
1122.67	91.7422
1125.56	174.875
1128.45	14.5547
1131.34	210.102
1134.24	169.93
1137.13	122.891
1140.02	27.1562
1142.91	72.4922
1145.81	243.719
1148.7	54.7969
1151.59	297.547
1154.49	294.281
1157.38	83.5859
1160.27	145.164
1163.16	5.14844
1166.06	108.898
1168.95	199.391
1171.84	289.734
1174.73	269.602
1177.63	179.477
1180.52	375.102
1183.41	519.438
1186.31	410.758
1189.2	351.836
1192.09	346.117
1194.98	259.633
1197.88	314.875
1200.77	167.316
1203.66	199.625
1206.56	306.019
1209.45	86.8828
1212.34	241.082
1215.23	230.953
1218.12	383.336
1221.02	192.859
1223.91	178.5
1226.8	325.043
1229.7	245.488
1232.59	74.2266
1235.48	23.5039
1238.37	164.375
1241.27	12.9062
1244.16	99.0664
