Measurement: Raman, 780 nm, unoriented, Raman Data Processed
Mineral: Calaverite
Rruff sample: R060134
Ideal chemistry: AuTe_2_
Locality: Cripple Creek, Teller County, Colorado, USA
Source: University of Arizona Mineral Museum
Description: Silver thick prismatic crystals with gold tarnish associated with quartz
Measured chemistry: (Au_1.89_Ag_0.11_)_Î£=2_Te_4.00_
Raman shift (cm-1)	intensity
133.97	0
136.862	0.157722
139.755	1.22609
142.648	1.77957
145.54	2.86191
148.433	3.43591
151.326	2.9925
154.218	4.71287
157.111	3.84619
160.004	3.48378
162.897	2.49069
165.789	1.7206
168.682	0.750465
171.575	0.754968
174.467	0.094544
177.36	0.1781
180.253	0.074098
183.145	0.218937
186.038	0.124697
188.931	1.00038
191.823	1.29147
194.716	1.69779
197.609	1.5536
200.502	1.71535
203.394	2.048
206.287	2.30548
209.18	2.86707
212.072	3.31177
214.965	3.44381
217.858	3.6341
220.75	3.73271
223.643	3.39032
226.536	3.85964
229.429	3.89671
232.321	3.78682
235.214	3.81908
238.107	3.01204
240.999	2.61998
243.892	2.41441
246.785	2.35834
249.677	2.33609
252.57	2.18528
255.463	1.79146
258.356	1.32508
261.248	1.48294
264.141	1.69705
267.034	1.34934
269.926	0.787587
272.819	0.886718
275.712	0.788631
278.604	0.972122
281.497	0.588338
284.39	0.26198
287.283	0.034173
290.175	0.074377
293.068	0.146763
295.961	0.60704
298.853	0.879334
301.746	0.549388
304.639	0.917797
307.531	1.18147
310.424	0.272976
313.317	0.028873
316.209	0.038753
319.102	0.080424
321.995	0.134945
324.888	0.008518
327.78	0.065406
330.673	0.254391
333.566	0.002275
336.458	0.016767
339.351	0.001217
342.244	0.487314
345.137	0.745723
348.029	1.96849
350.922	3.18899
353.815	2.86225
356.707	1.64939
359.6	1.09032
362.493	0.970772
365.385	0.90213
368.278	1.10085
371.171	0.826248
374.063	0.679733
376.956	0.732001
379.849	0.770281
382.741	0.840658
385.634	0.822609
388.527	0.511102
391.42	0.136616
394.312	0.216544
397.205	0.063377
400.098	0.059363
402.99	0.054882
405.883	0.011579
408.776	0.032059
411.668	0.21539
414.561	0.004931
417.454	0.04096
420.347	0.047091
423.239	0.277039
426.132	0.396511
429.025	0.507459
431.917	0.420202
434.81	0.069328
437.703	0.424987
440.596	0.42053
443.488	0.739359
446.381	0.824732
449.274	0.739169
452.166	0.750377
455.059	0.802912
457.952	0.139703
460.844	0.07878
463.737	0.237937
466.63	0.562112
469.522	1.01728
472.415	1.05289
475.308	0.462496
478.201	0.269002
481.093	0.821117
483.986	0.702151
486.879	0.419279
489.771	0.252723
492.664	0.854728
495.557	0.619641
498.45	0.865465
501.342	0.496573
504.235	0.897461
507.128	0.107058
510.02	0.505013
512.913	0.598033
515.806	0.044663
518.698	0.03756
521.591	0.23265
524.484	0.174374
527.376	0.096469
530.269	0.089415
533.162	0.691754
536.055	0.616267
538.947	1.05288
541.84	0.136823
544.733	0.550358
547.625	0.815241
550.518	0.534844
553.411	0.418372
556.303	0.481501
559.196	0.299585
562.089	0.36128
564.981	0.249754
567.874	0.173638
570.767	0.330945
573.66	0.125342
576.552	0.547929
579.445	0.056647
582.338	0.330624
585.23	0.435575
588.123	0.173299
591.016	0.346224
593.909	0.897667
596.801	0.483364
599.694	0.359945
602.587	0.441135
605.479	0.193693
608.372	0.351435
611.265	0.376771
614.157	0.232075
617.05	0.244218
619.943	0.058217
622.836	0.442141
625.728	0.268638
628.621	0.026628
631.514	0.085706
634.406	0.943688
637.299	0.756734
640.192	0.532117
643.084	0.698339
645.977	1.37506
648.87	0.774822
651.763	1.16006
654.655	0.169484
657.548	0.706581
660.441	0.59432
663.333	0.399796
666.226	0.398055
669.119	1.26472
672.011	0.016074
674.904	0.4629
677.797	0.635373
680.689	0.863031
683.582	0.08202
686.475	0.03158
689.368	0.448492
692.26	0.007615
695.153	0.101666
698.046	0.895038
700.938	0.016288
703.831	0.313586
706.724	0.21958
709.616	0.109308
712.509	0.029498
715.402	0.468387
718.294	0.74494
721.187	0.117463
724.08	1.08333
726.973	0.307618
729.865	0.596315
732.758	0.704928
735.651	0.132718
738.543	0.559597
741.436	0.002147
744.329	0.605373
747.221	0.96148
750.114	0.478834
753.007	0.009099
755.9	0.28703
758.792	0.883845
761.685	0.024181
764.578	0.355987
767.47	0.607512
770.363	0.07227
773.256	0.052679
776.149	0.56256
779.041	0.037761
781.934	0.49068
784.827	0.427484
787.719	0.298086
790.612	0.017433
793.505	0.110963
796.397	0.636883
799.29	0.681688
802.183	0.688709
805.075	0.078313
807.968	0.266869
810.861	0.410313
813.754	0.090255
816.646	0.992657
819.539	0.305411
822.432	0.979397
825.324	0.571266
828.217	0.630149
831.11	1.01662
834.002	0.50471
836.895	0.95994
839.788	1.35897
842.681	0.53748
845.573	0.88276
848.466	0.791413
851.359	1.00823
854.251	1.73618
857.144	0.995867
860.037	1.34679
862.929	0.679303
865.822	0.980093
868.715	0.799759
871.607	0.788043
874.5	1.12511
877.393	0.849328
880.286	0.713748
883.178	0.843686
886.071	0.961858
888.964	0.023322
891.856	0.452162
894.749	0.229966
897.642	0.22176
900.534	0.025648
903.427	0.018422
906.32	0.048404
909.213	0.033474
912.105	0.030655
914.998	0.064186
917.891	0.414245
920.783	0.067807
923.676	0.279462
926.569	0.288364
929.462	0.321291
932.354	0.579466
935.247	0.02155
938.14	0.217907
941.032	0.021314
943.925	0.794907
946.818	0.262752
949.71	1.05227
952.603	0.704435
955.496	0.491129
958.388	0.203933
961.281	0.984247
964.174	0.448633
967.067	0.080538
969.959	0.313572
972.852	0.470953
975.745	0.192805
978.637	0.047756
981.53	0.427681
984.423	0.27951
987.315	0.005983
990.208	0.055103
993.101	0.519452
995.994	0.027822
998.886	0.927751
1001.78	0.224962
1004.67	0.738759
1007.56	0.989017
1010.46	0.556505
1013.35	0.233931
1016.24	0.01746
1019.13	1.05611
1022.03	1.03543
1024.92	1.11096
1027.81	0.16413
1030.71	1.00314
1033.6	0.800367
1036.49	0.413147
1039.38	0.720493
1042.28	0.639689
1045.17	0.117841
1048.06	0.714605
1050.95	0.421803
1053.85	0.856658
1056.74	0.720299
1059.63	0.854707
1062.53	0.226446
1065.42	0.599635
1068.31	0.285207
1071.2	0.137692
1074.1	0.489229
1076.99	0.495233
1079.88	0.358758
1082.77	0.049055
1085.67	0.503591
1088.56	0.051407
1091.45	1.00166
1094.35	0.980258
1097.24	0.161507
1100.13	0.418337
1103.02	0.632318
1105.92	0.903408
1108.81	0.805433
1111.7	0.699088
1114.59	0.587854
1117.49	0.448029
1120.38	0.777061
1123.27	0.047772
1126.16	0.03894
1129.06	0.059997
1131.95	0.222564
1134.84	0.361477
1137.74	0.868461
1140.63	0.616369
1143.52	0.066931
1146.41	0.827483
1149.31	1.02532
1152.2	0.540325
1155.09	0.638517
1157.98	0.261857
1160.88	0.649937
1163.77	0.642258
1166.66	0.355837
1169.56	0.961358
1172.45	0.457301
1175.34	0.41615
1178.23	0.855736
1181.13	0.876891
1184.02	0.554923
1186.91	1.10928
1189.8	0.56684
1192.7	0.21272
1195.59	0.235353
1198.48	0.545241
1201.38	0.567531
1204.27	0.501874
1207.16	0.87763
1210.05	0.445574
1212.95	0.265938
1215.84	0.144782
1218.73	0.51579
1221.62	0.780271
1224.52	0.379169
1227.41	0.520335
1230.3	0.965863
1233.19	0.475759
1236.09	0.675134
1238.98	1.06117
1241.87	0.335631
1244.77	0.004977
1247.66	0.518123
1250.55	0.317117
1253.44	1.16069
1256.34	1.19674
1259.23	0.008719
1262.12	0.181152
1265.01	0.508335
1267.91	1.17783
1270.8	0.026622
1273.69	0.88751
1276.59	0.627942
1279.48	0.557747
1282.37	1.15524
1285.26	0.118579
