Measurement: Raman, 785 nm, unoriented, Raman Data Processed
Mineral: Calaverite
Rruff sample: R070164
Ideal chemistry: AuTe_2_
Locality: Vindicator mine, Cripple Creek, Teller County, Colorado, USA
Source: Michael Scott
Description: Loose pale gold colored metallic fragments associated with quartz, used to define ICDD pattern
Measured chemistry: (Au_0.90_Ag_0.10_)_Î£=1_Te_2.00_
Raman shift (cm-1)	intensity
139.148	0
142.041	26.165
144.933	153.891
147.826	267.979
150.719	384.191
153.612	397.242
156.504	324.97
159.397	236.911
162.29	225.466
165.182	217.52
168.075	222.823
170.968	213.302
173.86	162.496
176.753	165.071
179.646	79.5636
182.538	78.1802
185.431	70.6992
188.324	65.3441
191.217	65.9361
194.109	46.5626
197.002	98.2896
199.895	60.5731
202.787	78.4298
205.68	51.1075
208.573	36.1582
211.465	61.9762
214.358	12.5905
217.251	24.3598
220.144	22.0159
223.036	13.5946
225.929	8.2616
228.822	1.78674
231.714	6.13281
234.607	23.903
237.5	9.77283
240.393	7.44128
243.285	14.1519
246.178	6.17279
249.071	15.8117
251.963	17.4481
254.856	10.9087
257.749	28.9894
260.641	12.495
263.534	23.304
266.427	14.7317
269.32	19.8009
272.212	22.2701
275.105	36.5436
277.998	48.913
280.89	66.9262
283.783	87.5981
286.676	83.0305
289.568	72.7486
292.461	111.938
295.354	93.3935
298.247	96.7163
301.139	120.502
304.032	115.648
306.925	115.044
309.817	121.234
312.71	120.492
315.603	82.93
318.495	80.0424
321.388	102.54
324.281	103.19
327.173	72.7566
330.066	93.9805
332.959	62.993
335.852	65.6001
338.744	99.2336
341.637	56.9552
344.53	72.5405
347.422	38.1816
350.315	50.901
353.208	45.6046
356.101	54.2029
358.993	46.5573
361.886	29.4767
364.779	15.6709
367.671	3.94537
370.564	28.2233
373.457	29.12
376.349	20.5767
379.242	8.31464
382.135	23.1822
385.027	10.1558
387.92	0.942688
390.813	7.01105
393.706	17.5502
396.598	3.96344
399.491	1.17023
402.384	0.986206
405.276	43.0277
408.169	33.1801
411.062	2.92352
413.954	35.1451
416.847	16.5842
419.74	27.4247
422.633	37.6201
425.525	46.3251
428.418	14.2069
431.311	22.4655
434.203	16.4103
437.096	34.2498
439.989	27.0427
442.882	28.4781
445.774	46.1702
448.667	32.7544
451.56	36.3261
454.452	43.5652
457.345	43.8418
460.238	41.5602
463.13	38.1245
466.023	15.9061
468.916	22.025
471.808	27.0312
474.701	5.49188
477.594	35.9087
480.487	10.472
483.379	29.4538
486.272	27.5642
489.165	15.4857
492.057	30.7331
494.95	1.03809
497.843	20.6342
500.735	15.7013
503.628	8.58295
506.521	23.3298
509.413	6.75769
512.306	12.1453
515.199	25.8773
518.092	44.1544
520.984	18.3683
523.877	52.1572
526.77	12.7565
529.663	14.8645
532.555	23.4207
535.448	22.2447
538.341	13.6989
541.233	34.4847
544.126	16.0657
547.019	7.48712
549.911	3.72852
552.804	27.8738
555.697	11.1485
558.589	17.1653
561.482	8.6001
564.375	20.767
567.268	1.90686
570.16	2.68072
573.053	13.1835
575.946	24.5427
578.838	36.8914
581.731	37.2859
584.624	12.9217
587.516	33.2175
590.409	29.4072
593.302	20.9512
596.194	31.5467
599.087	15.0247
601.98	28.2707
604.873	32.8807
607.765	52.6725
610.658	30.1543
613.551	14.4714
616.443	29.1539
619.336	33.9382
622.229	3.7655
625.121	26.5132
628.014	15.4703
630.907	46.8351
633.8	14.3931
636.692	28.2064
639.585	2.59155
642.478	11.1393
645.37	19.0486
648.263	12.1309
651.156	2.7702
654.048	17.4781
656.941	31.7504
659.834	1.14673
662.727	24.4501
665.619	27.866
668.512	24.4783
671.405	26.1265
674.297	9.94482
677.19	9.60602
680.083	26.6845
682.976	16.0787
685.868	33.3131
688.761	36.8058
691.654	26.5295
694.546	41.2934
697.439	18.4309
700.332	25.5521
703.224	19.3015
706.117	22.5003
709.01	14.2645
711.903	16.0718
714.795	10.0629
717.688	20.4692
720.581	7.02948
723.473	34.1422
726.366	17.4274
729.259	18.3333
732.151	0.548157
735.044	13.9218
737.937	41.3331
740.83	23.4465
743.722	41.61
746.615	20.234
749.508	20.1427
752.4	52.1252
755.293	16.4564
758.186	28.2616
761.078	18.9578
763.971	24.9232
766.864	16.9255
769.756	37.2213
772.649	30.7298
775.542	26.6009
778.435	9.91852
781.327	11.9864
784.22	30.5709
787.113	41.2937
790.005	13.299
792.898	13.3221
795.791	9.51508
798.683	1.87958
801.576	20.2068
804.469	6.71967
807.362	15.7335
810.254	23.1572
813.147	32.1507
816.04	6.84692
818.932	18.6984
821.825	30.7577
824.718	9.10199
827.611	14.7877
830.503	29.5285
833.396	32.9246
836.289	4.22961
839.181	23.0519
842.074	2.25501
844.967	19.6451
847.859	12.4369
850.752	6.2818
853.645	25.113
856.538	29.2435
859.43	40.4898
862.323	4.87793
865.216	8.26227
868.108	40.4179
871.001	36.212
873.894	8.37732
876.786	2.48377
879.679	4.22174
882.572	18.702
885.465	0.577942
888.357	2.83124
891.25	19.5784
894.143	7.46191
897.035	30.4346
899.928	0.545349
902.821	31.8372
905.713	9.5061
908.606	16.6973
911.499	24.5906
914.391	11.186
917.284	37.3936
920.177	14.5701
923.07	0.308411
925.962	20.4749
928.855	5.40399
931.748	26.2746
934.64	31.049
937.533	28.0784
940.426	11.2632
943.318	15.7101
946.211	33.3628
949.104	17.8048
951.996	18.7869
954.889	5.73877
957.782	16.2236
960.675	7.22949
963.567	32.5042
966.46	5.95502
969.353	18.4908
972.245	3.32776
975.138	33.019
978.031	17.9964
980.923	18.0019
983.816	3.81958
986.709	6.04083
989.602	23.4284
992.494	7.30823
995.387	20.2092
998.28	8.94763
1001.17	3.75897
1004.07	7.9621
1006.96	26.7168
1009.85	6.48932
1012.74	18.5886
1015.64	20.8265
1018.53	8.62445
1021.42	23.0891
1024.31	19.6395
1027.21	3.28113
1030.1	20.6187
1032.99	4.97333
1035.88	20.0342
1038.78	35.2103
1041.67	16.1706
1044.56	5.90497
1047.46	14.9059
1050.35	26.1956
1053.24	22.8442
1056.13	22.2125
1059.03	26.4683
1061.92	10.8279
1064.81	23.066
1067.7	21.4377
1070.6	20.8113
1073.49	27.0237
1076.38	15.7548
1079.28	11.718
1082.17	19.2289
1085.06	29.5243
1087.95	9.39703
1090.85	4.29065
1093.74	21.132
1096.63	10.2924
1099.52	37.4811
1102.42	7.57178
1105.31	21.288
1108.2	23.6612
1111.1	22.2976
1113.99	17.5529
1116.88	49.73
1119.77	9.82532
1122.67	52.2751
1125.56	20.6417
1128.45	22.4814
1131.34	13.9783
1134.24	9.77252
1137.13	2.73584
1140.02	26.8326
1142.91	12.8211
1145.81	29.8133
1148.7	15.4421
1151.59	35.5103
1154.48	17.9056
1157.38	50.266
1160.27	0.086304
1163.16	14.7398
1166.06	29.8663
1168.95	12.6927
1171.84	4.60468
1174.73	46.9892
1177.63	23.5867
1180.52	14.5986
1183.41	4.87024
1186.31	28.2488
1189.2	2.05188
1192.09	6.51874
1194.98	17.3044
1197.88	11.6011
1200.77	36.0732
1203.66	39.6173
1206.55	12.7546
1209.45	38.4664
1212.34	33.1777
1215.23	15.5634
1218.12	9.55505
