Measurement: Raman, 532 nm, unoriented, Raman Data Processed
Mineral: Celsian
Rruff sample: R170048
Ideal chemistry: BaAl_2_Si_2_O_8_
Locality: Big Creek, Pine Flat Lake, Trimmer, Fresno County, California, USA
Source: Gunnar FÃ¤rber
Description: Colorless anhedral grains in matrix associated with cerchiaraite-(Fe) R160021 and pellyite R160023
Raman shift (cm-1)	intensity
88.1367	0
91.5115	66.2983
94.8863	21.7275
98.2612	12.8174
101.636	41.6099
105.011	206.566
108.386	480.385
111.76	617.145
115.135	788.08
118.51	901.199
121.885	1071.76
125.26	1307.19
128.635	1538.83
132.009	1808.76
135.384	2118.85
138.759	2160.89
142.134	2038.8
145.509	1934.99
148.883	1837.66
152.258	1750.98
155.633	1661.31
159.008	1657.2
162.383	1776.1
165.757	1875.71
169.132	1921.72
172.507	1798.98
175.882	1558.95
179.257	1157.44
182.632	898.497
186.006	757.754
189.381	703.459
192.756	721.386
196.131	807.315
199.506	590.32
202.881	308.781
206.255	187.174
209.63	194.101
213.005	212.956
216.38	208.828
219.755	198.233
223.129	190.428
226.504	99.959
229.879	83.1152
233.254	128.404
236.629	182.302
240.004	318.972
243.378	559.901
246.753	759.584
250.128	623.844
253.503	447.178
256.878	436.557
260.252	285.827
263.627	83.1279
267.002	16.0752
270.377	55.9971
273.752	20.667
277.127	3.06445
280.501	48.3848
283.876	44.2783
287.251	2.47168
290.626	44.6016
294.001	95.1397
297.375	168.589
300.75	293.831
304.125	431.981
307.5	448.195
310.875	235.628
314.25	111.312
317.624	54.4668
320.999	48.9531
324.374	81.8418
327.749	72.3418
331.124	55.4766
334.498	62.6807
337.873	65.3193
341.248	90.5303
344.623	92.79
347.998	99.6035
351.373	150.332
354.747	190.848
358.122	148.897
361.497	87.2266
364.872	84.6953
368.247	86.1436
371.621	61.5986
374.996	18.3975
378.371	0.293945
381.746	17.1094
385.121	52.1416
388.495	54.7295
391.87	48.71
395.245	63.5996
398.62	89.0029
401.995	115.659
405.37	143.785
408.744	168.673
412.119	201.802
415.494	164.922
418.869	108.791
422.244	89.5615
425.618	126.065
428.993	164.449
432.368	100.309
435.743	41.6084
439.118	2.63672
442.493	5.18457
445.867	20.9873
449.242	25.6133
452.617	3.00586
455.992	3.91602
459.367	69.5381
462.741	122.458
466.116	103.852
469.491	68.6465
472.866	49.1133
476.241	11.4238
479.615	3.61133
482.99	6.86523
486.365	8.43555
489.74	16.8291
493.115	62.2656
496.49	138.524
499.864	182.044
503.239	215.691
506.614	200.874
509.989	175.593
513.364	107.929
516.739	29.9971
520.113	18.293
523.488	48.2334
526.863	59.4541
530.238	45.3867
533.613	30.4854
536.987	49.5557
540.362	63.5293
543.737	35.9766
547.112	17.8711
550.487	24.0723
553.861	39.2598
557.236	34.1357
560.611	18.5586
563.986	16.3877
567.361	22.6621
570.736	30.3623
574.11	40.668
577.485	42.2334
580.86	41.4941
584.235	65.1113
587.61	84.3418
590.985	60.998
594.359	44.5986
597.734	46.5879
601.109	41.2119
604.484	34.3184
607.859	49.1582
611.233	76.6514
614.608	96.3643
617.983	90.4971
621.358	64.3154
624.733	42.9971
628.107	22.2432
631.482	4.99609
634.857	0.607422
638.232	24.7148
641.607	6.02441
644.982	13.8906
648.356	9.14355
651.731	19.5811
655.106	17.1143
658.481	30.6182
661.856	24.5371
665.231	17.9209
668.605	72.5742
671.98	112.686
675.355	65.8516
678.73	22.2803
682.105	55.3262
685.479	88.3682
688.854	73.7481
692.229	54.0068
695.604	44.5508
698.979	17.751
702.354	3.73535
705.728	21.0762
709.103	58.2812
712.478	52.2295
715.853	28.0254
719.227	29.9424
722.602	31.8916
725.977	16.3281
729.352	19.1777
732.727	43.5898
736.102	74.9609
739.476	79.5186
742.851	42.4404
746.226	13.5918
749.601	22.8916
752.976	34.3506
756.351	49.3535
759.725	60.3701
763.1	45.4287
766.475	19.3232
769.85	14.4033
773.225	11.7119
776.599	1.48144
779.974	1.81055
783.349	19.667
786.724	28.8975
790.099	14.1855
793.473	14.8643
796.848	48.8506
800.223	51.3086
803.598	4.7207
806.973	7.71484
810.348	19.1113
813.722	32.2539
817.097	28.874
820.472	33.625
823.847	32.1162
827.222	22.5664
830.597	51.5068
833.971	95.624
837.346	90.1309
840.721	88.7012
844.096	102.78
847.471	72.4814
850.846	49.7344
854.22	71.9375
857.595	73.4102
860.97	50.6719
864.345	50.4522
867.72	55.7441
871.094	38.8633
874.469	9.37891
877.844	0.206055
881.219	6.62891
884.594	25.9434
887.968	44.79
891.343	39.2832
894.718	12.2725
898.093	0.074219
901.468	16.0137
904.842	31.7979
908.217	20.2432
911.592	1.02246
914.967	0.84082
918.342	11.6807
921.717	10.1553
925.091	6.60742
928.466	4.24023
931.841	18.3955
935.216	23.5498
938.591	32.2275
941.966	39.9824
945.34	19.9014
948.715	13.1982
952.09	19.5752
955.465	12.6426
958.84	21.2637
962.214	41.1387
965.589	39.3633
968.964	36.6397
972.339	37.3633
975.714	45.9346
979.088	52.8711
982.463	38.3516
985.838	22.3242
989.213	23.4893
992.588	43.7588
995.963	63.9639
999.337	64.1963
1002.71	57.8262
1006.09	64.1797
1009.46	60.2109
1012.84	31.708
1016.21	8.09863
1019.59	1.18457
1022.96	13.3955
1026.34	25.1338
1029.71	30.9141
1033.09	36.0889
1036.46	37.5654
1039.84	29.2197
1043.21	18.5186
1046.59	3.83496
1049.96	9.16797
1053.33	13.8799
1056.71	53.7559
1060.08	48.3389
1063.46	29.5547
1066.83	36.5693
1070.21	55.3037
1073.58	58.6338
1076.96	55.2705
1080.33	56.6035
1083.71	60.9053
1087.08	53.7207
1090.46	33.2529
1093.83	32.8428
1097.21	60.4062
1100.58	86.0068
1103.96	84.2197
1107.33	42.5742
1110.71	8.45898
1114.08	16.7354
1117.46	41.5703
1120.83	104.174
1124.21	80.9619
1127.58	28.1123
1130.95	40.1143
1134.33	85.5566
1137.7	112.058
1141.08	119.083
1144.45	109.267
1147.83	99.2822
1151.2	98.1455
1154.58	106.005
1157.95	117.907
1161.33	115.102
1164.7	94.1162
1168.08	75.9092
1171.45	85.4795
1174.83	128.079
1178.2	127.685
1181.58	87.1992
1184.95	77.9912
1188.33	106.948
1191.7	122.626
1195.08	102.085
1198.45	92.9893
1201.83	88.5098
1205.2	59.1514
1208.58	35.7666
1211.95	45.5742
1215.33	65.7305
1218.7	69.0957
1222.08	45.0342
1225.45	12.8574
1228.83	0.392578
1232.2	5.27246
1235.58	5.39844
1238.95	19.79
1242.32	54.4688
1245.7	76.7441
1249.07	79.5488
1252.45	70.335
1255.82	74.8076
1259.2	75.0684
1262.57	56.9912
1265.95	37.5664
1269.32	21.2793
1272.7	5.65137
1276.07	2.1582
1279.45	23.1465
1282.82	46.0664
1286.2	30.0244
1289.57	0.519531
1292.95	10.6777
1296.32	30.4512
1299.7	10.4248
