Measurement: Raman, 532 nm, unoriented, Raman Data Processed
Mineral: Cerite-(CeCa)
Rruff sample: R130614
Ideal chemistry: (Ce^3+^_7_Ca_2_)[box]Mg(SiO_4_)_3_(SiO_3_OH)_4_(OH)_3_
Locality: Mont Saint-Hilaire, Rouville County, Quebec, Canada
Source: Don Doell
Description: Hexagonal platy pink crystals, associated with catapleiite and aegirine. The color is dependent upon light source.
Raman shift (cm-1)	intensity
141.652	0
145.026	6.06445
148.401	7.75439
151.776	41.2036
155.151	44.7974
158.526	23.1645
161.901	17.4092
165.275	9.54443
168.65	4.54492
172.025	2.2041
175.4	17.0312
178.775	17.4619
182.149	23.5723
185.524	12.1797
188.899	1.31445
192.274	2.06348
195.649	7.23633
199.024	12.2354
202.398	14.7676
205.773	13.4502
209.148	18.9482
212.523	16.5234
215.898	25.9863
219.273	29.0645
222.647	15.2578
226.022	13.7529
229.397	16.7393
232.772	48.1426
236.147	77.7412
239.521	82.0439
242.896	40.7344
246.271	23.7998
249.646	33.458
253.021	37.9219
256.396	38.0625
259.77	24.3398
263.145	27.2988
266.52	25.4697
269.895	11.2129
273.27	2.39844
276.644	16.6953
280.019	8.26074
283.394	2.68164
286.769	25.0586
290.144	4.37402
293.519	3.08301
296.893	4.58887
300.268	18.874
303.643	55.4346
307.018	62.3262
310.392	57.1113
313.767	55.9199
317.142	86.9385
320.517	89.7197
323.892	109.985
327.267	122.942
330.641	90.4248
334.016	118.04
337.391	135.786
340.766	132.685
344.141	150.002
347.515	187.279
350.89	217.566
354.265	241.51
357.64	256.918
361.015	275.71
364.39	290.027
367.764	289.097
371.139	282.008
374.514	271.104
377.889	243.53
381.264	202.638
384.639	192.636
388.013	185.383
391.388	159.056
394.763	152.769
398.138	156.204
401.513	117.568
404.887	86.0205
408.262	71.7051
411.637	67.3301
415.012	85.6436
418.387	52.2695
421.762	32.3213
425.136	9.5791
428.511	52.8086
431.886	32.6807
435.261	4.37695
438.636	19.2725
442.01	16.2686
445.385	3.32129
448.76	9.35742
452.135	2.33398
455.51	13.4404
458.885	13.4131
462.259	13.6123
465.634	1.36914
469.009	7.1543
472.384	20.5137
475.759	21.3652
479.133	13.4287
482.508	3.04394
485.883	9.40332
489.258	30.5371
492.633	29.709
496.007	0.558594
499.382	8.34961
502.757	41.7803
506.132	45.5537
509.507	45.085
512.882	49.373
516.256	64.2988
519.631	45.0664
523.006	37.3418
526.381	46.6992
529.756	68.6592
533.13	91.0527
536.505	67.251
539.88	72.8174
543.255	59.9072
546.63	90.8359
550.005	83.7061
553.379	88.5107
556.754	111.288
560.129	107.186
563.504	96.1602
566.879	96.2402
570.254	128.467
573.628	130.296
577.003	142.491
580.378	111.686
583.753	101.606
587.128	98.1865
590.502	73.1924
593.877	53.0713
597.252	59.124
600.627	47.706
604.002	50.9297
607.376	31.7686
610.751	31.1182
614.126	32.9902
617.501	21.6738
620.876	16.2256
624.25	16.458
627.625	21.335
631	30.5947
634.375	21.8711
637.75	11.6318
641.125	6.63477
644.5	11.4365
647.874	17.751
651.249	39.7315
654.624	24.8486
657.999	20.126
661.374	2.59863
664.748	1.84277
668.123	7.2666
671.498	7.16113
674.873	2.76856
678.248	5.16406
681.622	6.58398
684.997	17.8301
688.372	20.6836
691.747	17.4463
695.122	32.5801
698.496	39.0938
701.871	12.9932
705.246	9.74121
708.621	25.752
711.996	7.08301
715.371	26.8232
718.745	20.2715
722.12	25.0166
725.495	28.7686
728.87	36.7578
732.245	25.6406
735.62	29.6768
738.994	48.0654
742.369	57.374
745.744	51.957
749.119	23.8154
752.494	27.7178
755.868	4.11133
759.243	7.25586
762.618	5.87305
765.993	5.93457
769.368	19.7031
772.742	14.9268
776.117	19.165
779.492	31.1943
782.867	36.2178
786.242	7.60449
789.617	17.623
792.991	32.5107
796.366	27.8564
799.741	42.3428
803.116	47.0772
806.491	82.1338
809.865	103.358
813.24	119.314
816.615	135.907
819.99	184.269
823.365	188.352
826.74	183.629
830.114	243.09
833.489	271.815
836.864	294.9
840.239	378.359
843.614	434.772
846.989	502.107
850.363	627.748
853.738	676.39
857.113	710.464
860.488	752.247
863.863	748.862
867.237	665.256
870.612	568.347
873.987	395.056
877.362	281.733
880.737	219.288
884.111	172.703
887.486	133.929
890.861	94.6035
894.236	89.5137
897.611	84.0879
900.986	69.0127
904.36	53.4375
907.735	40.793
911.11	11.4102
914.485	2.68359
917.86	10.2666
921.235	0.470703
924.609	12.957
927.984	12.9775
931.359	6.05762
934.734	13.8262
938.109	4.7041
941.483	27.9004
944.858	26.1396
948.233	10.2715
951.608	14.5527
954.983	30.6357
958.357	80.4482
961.732	98.4785
965.107	69.1133
968.482	57.1709
971.857	67.3203
975.232	103.804
978.606	101.107
981.981	92.6221
985.356	82.3809
988.731	52.2891
992.106	44.9922
995.481	21.5068
998.855	20.5322
1002.23	5.06836
1005.61	22.3154
1008.98	8.31055
1012.36	49.8477
1015.73	32.708
1019.1	29.8262
1022.48	4.46973
1025.85	35.6494
1029.23	41.3565
1032.6	58.0918
1035.98	13.4238
1039.35	2.69531
1042.73	39.834
1046.1	60.5713
1049.48	54.6572
1052.85	44.8721
1056.23	39.2715
1059.6	43.918
1062.98	37.4336
1066.35	32.7051
1069.73	59.5674
1073.1	67.1758
1076.48	69.209
1079.85	37.9893
1083.23	39.2822
1086.6	55.2022
1089.97	42.6943
1093.35	47.0977
1096.72	32.0791
1100.1	36.0908
1103.47	13.1797
1106.85	10.9521
1110.22	32.9023
1113.6	24.3721
1116.97	23.1279
1120.35	4.66504
1123.72	23.3672
1127.1	13.415
1130.47	14.0078
1133.85	3.19922
1137.22	17.8027
1140.6	42.0195
1143.97	33.5498
1147.35	20.252
1150.72	27.0186
1154.1	43.4502
1157.47	33.3281
1160.85	59.0615
1164.22	78.9053
1167.6	73.2637
1170.97	70.9375
1174.35	89.957
1177.72	63.4336
1181.1	77.8838
1184.47	100.059
1187.85	91.9648
1191.22	132.439
1194.6	106.14
1197.97	110.978
1201.34	94.1533
1204.72	114.454
1208.09	106.36
1211.47	113.355
1214.84	115.023
1218.22	93.915
1221.59	99.2519
1224.97	106.199
1228.34	77.3516
1231.72	83.833
1235.09	61.792
1238.47	57.7822
1241.84	73.1123
1245.22	71.6143
1248.59	83.042
1251.97	89.1289
1255.34	97.5644
1258.72	105.228
1262.09	66.2578
1265.47	51.1484
1268.84	75.0371
1272.21	47.8906
1275.59	17.127
1278.96	38.0117
1282.34	17.3535
1285.71	42.4512
1289.09	48.8398
1292.46	32.7383
1295.84	8.15234
1299.21	9.07617
