Measurement: Raman, 532 nm, unoriented, Raman Data Processed
Mineral: Chalcocite
Rruff sample: R130757
Ideal chemistry: Cu^1+^_2_S^2-^
Locality: China
Source: Rob Lavinsky
Description: Black crystals with blue tarnish on a surface
Raman shift (cm-1)	intensity
139.241	0
142.616	1.74231
145.991	2.70151
149.365	3.1996
152.74	4.40367
156.115	5.53505
159.49	3.19868
162.865	4.60452
166.24	2.78357
169.614	2.99071
172.989	1.92018
176.364	0.049988
179.739	1.63498
183.114	0.284775
186.488	0.751694
189.863	0.553391
193.238	0.39592
196.613	0.49472
199.988	1.54678
203.363	1.77104
206.737	2.71263
210.112	4.73438
213.487	4.26708
216.862	6.45581
220.237	7.13966
223.612	7.79109
226.986	8.51256
230.361	9.69612
233.736	11.1928
237.111	11.1893
240.486	11.0679
243.86	10.6901
247.235	9.06093
250.61	6.64928
253.985	6.07477
257.36	5.25085
260.735	5.36232
264.109	5.53378
267.484	4.95453
270.859	4.40482
274.234	6.97621
277.609	9.4218
280.983	13.2648
284.358	19.7221
287.733	33.462
291.108	39.9164
294.483	21.2693
297.858	8.85124
301.232	4.66643
304.607	2.83267
307.982	2.4792
311.357	2.68785
314.732	2.53335
318.106	3.95061
321.481	2.65501
324.856	2.53663
328.231	1.82224
331.606	0.42276
334.981	0.40786
338.355	0.206001
341.73	0.216881
345.105	1.01623
348.48	1.77528
351.855	2.9091
355.229	2.52702
358.604	2.03445
361.979	1.68691
365.354	2.79147
368.729	2.40313
372.103	1.61707
375.478	1.22956
378.853	0.192322
382.228	0.286766
385.603	0.026123
388.978	0.09906
392.352	0.372612
395.727	0.564941
399.102	0.807701
402.477	0.841415
405.852	0.287605
409.226	0.560944
412.601	0.812584
415.976	1.5755
419.351	0.517952
422.726	0.033195
426.101	1.24464
429.475	1.23045
432.85	1.12328
436.225	1.00567
439.6	0.7714
442.975	2.41724
446.349	2.05566
449.724	2.0643
453.099	1.35684
456.474	1.50067
459.849	0.620827
463.224	1.0233
466.598	0.101723
469.973	0.236351
473.348	1.08559
476.723	0.457001
480.098	0.147751
483.473	1.44392
486.847	0.288597
490.222	0.534386
493.597	0.364586
496.972	0.74028
500.347	0.722687
503.721	1.31483
507.096	1.81181
510.471	0.718781
513.846	1.28325
517.221	1.19015
520.596	1.88695
523.97	1.33485
527.345	1.77277
530.72	1.38481
534.095	2.15915
537.47	1.8449
540.844	2.18123
544.219	1.72632
547.594	1.74219
550.969	1.87492
554.344	1.86323
557.718	1.1648
561.093	0.121353
564.468	0.687859
567.843	0.66349
571.218	0.251434
574.592	0.007317
577.967	0.390358
581.342	0.612877
584.717	1.45068
588.092	0.614777
591.467	0.946449
594.841	1.28961
598.216	1.00501
601.591	1.40363
604.966	1.73012
608.341	1.19628
611.716	1.47456
615.09	0.331215
618.465	0.523186
621.84	1.00971
625.215	0.110619
628.59	0.652374
631.964	0.873009
635.339	0.839622
638.714	0.764343
642.089	0.25956
645.464	0.338089
648.838	1.61941
652.213	1.86462
655.588	0.956924
658.963	1.20602
662.338	1.18639
665.713	0.333237
669.087	0.464745
672.462	0.115257
675.837	0.581726
679.212	0.660286
682.587	0.730568
685.962	0.889381
689.336	0.000732
692.711	0.656013
696.086	1.72407
699.461	0.20475
702.836	0.020508
706.21	1.9445
709.585	0.221008
712.96	0.446236
716.335	0.356117
719.71	0.334457
723.085	0.216255
726.459	0.103401
729.834	0.054909
733.209	0.434662
736.584	0.457001
739.959	0.153503
743.333	0.090851
746.708	0.240608
750.083	0.443581
753.458	0.578819
756.833	1.10132
760.207	0.067383
763.582	0.043739
766.957	0.817177
770.332	0.653412
773.707	1.20821
777.082	1.66097
780.456	1.47943
783.831	2.14674
787.206	1.79584
790.581	2.38811
793.956	2.76191
797.33	2.90144
800.705	2.00899
804.08	3.00588
807.455	3.34112
810.83	3.48515
814.205	3.96317
817.579	4.81919
820.954	4.98525
824.329	4.20693
827.704	5.59055
831.079	5.82879
834.453	5.50101
837.828	5.8826
841.203	5.54965
844.578	6.21178
847.953	5.99496
851.328	6.24684
854.702	5.66725
858.077	6.06811
861.452	6.28561
864.827	6.37854
868.202	5.62431
871.577	4.78281
874.951	4.27914
878.326	3.87574
881.701	3.79022
885.076	2.91237
888.451	1.95071
891.825	2.07424
895.2	1.81359
898.575	1.22066
901.95	0.651161
905.325	0.794792
908.699	0.776855
912.074	0.454262
915.449	0.040375
918.824	0.251503
922.199	0.388138
925.573	0.215576
928.948	0.910286
932.323	0.896629
935.698	0.068756
939.073	0.264305
942.448	0.734177
945.822	0.685745
949.197	0.106964
952.572	0.358894
955.947	1.20372
959.322	0.704567
962.697	0.477066
966.071	0.580299
969.446	0.266068
972.821	0.66468
976.196	0.177254
979.571	0.042908
982.945	0.092171
986.32	0.703461
989.695	1.29246
993.07	1.8059
996.445	1.13532
999.819	0.94619
1003.19	1.29545
1006.57	1.58909
1009.94	0.958946
1013.32	1.36553
1016.69	1.67768
1020.07	1.12401
1023.44	1.37913
1026.82	2.22726
1030.19	2.31187
1033.57	3.29433
1036.94	3.0331
1040.32	2.81724
1043.69	3.17616
1047.07	2.66225
1050.44	2.65303
1053.82	1.77622
1057.19	2.10021
1060.57	0.437149
1063.94	1.43459
1067.32	1.25039
1070.69	0.267738
1074.07	1.18798
1077.44	0.859543
1080.82	1.23195
1084.19	0.762093
1087.57	1.39432
1090.94	0.701317
1094.31	1.25896
1097.69	0.683586
1101.06	0.455315
1104.44	0.820313
1107.81	0.769768
1111.19	0.672737
1114.56	0.025017
1117.94	0.085098
1121.31	0.297607
1124.69	0.188339
1128.06	0.037933
1131.44	0.545235
1134.81	0.194344
1138.19	1.38371
1141.56	0.745132
1144.94	1.00272
1148.31	1.25519
1151.69	2.31931
1155.06	1.78667
1158.44	1.80463
1161.81	1.90556
1165.19	2.54354
1168.56	2.41014
1171.93	1.57056
1175.31	1.76195
1178.68	2.78367
1182.06	2.8806
1185.43	2.65165
1188.81	3.11261
1192.18	1.85823
1195.56	1.75304
1198.93	1.48925
1202.31	1.40508
1205.68	0.339539
1209.06	0.603226
1212.43	0.05513
1215.81	0.214798
1219.18	0.877876
1222.56	0.446991
1225.93	0.959633
1229.31	1.60821
1232.68	1.12744
1236.06	0.622772
1239.43	0.434578
1242.81	2.16446
1246.18	0.754822
1249.56	1.32534
1252.93	0.626396
1256.31	0.954529
1259.68	0.500397
1263.06	0.618423
1266.43	1.60103
1269.81	1.73925
1273.18	1.67748
1276.56	1.17353
1279.93	1.68442
1283.3	1.52977
1286.68	0.982086
1290.05	0.867683
1293.43	0.596382
1296.8	0.043549
1300.18	0.217773
