Measurement: Raman, 780 nm, unoriented, Raman Data Processed
Mineral: Chalcocite
Rruff sample: R130757
Ideal chemistry: Cu^1+^_2_S^2-^
Locality: China
Source: Rob Lavinsky
Description: Black crystals with blue tarnish on a surface
Raman shift (cm-1)	intensity
113.135	0
116.509	0.770874
119.884	0.049591
123.259	3.5289
126.634	0.803085
130.009	3.6076
133.383	2.41426
136.758	3.06857
140.133	6.45803
143.508	4.28875
146.883	4.76788
150.257	3.69105
153.632	3.99293
157.007	2.04414
160.382	1.29976
163.757	0.048599
167.132	1.0283
170.506	0.043602
173.881	0.540161
177.256	1.2377
180.631	1.92999
184.006	1.98167
187.381	2.70028
190.755	2.67178
194.13	3.07323
197.505	4.69775
200.88	4.94259
204.255	5.54862
207.629	5.09486
211.004	5.89925
214.379	5.1796
217.754	5.90235
221.129	6.51833
224.504	6.72061
227.878	5.33497
231.253	5.57991
234.628	5.77276
238.003	5.18489
241.378	6.04213
244.752	7.16598
248.127	6.86802
251.502	7.37211
254.877	7.26116
258.252	7.85776
261.627	8.75159
265.001	8.3974
268.376	6.33418
271.751	4.81191
275.126	4.23866
278.5	5.14937
281.875	7.85508
285.25	15.575
288.625	30.7221
292	28.5986
295.375	11.0561
298.75	3.67569
302.124	0.793064
305.499	0.230045
308.874	0.627586
312.249	0.003536
315.623	1.0031
318.998	0.89381
322.373	0.793762
325.748	0.087879
329.123	0.502563
332.498	0.255268
335.873	0.125626
339.247	0.095566
342.622	1.29218
345.997	0.60231
349.372	0.704208
352.747	0.923859
356.121	1.05948
359.496	1.0051
362.871	0.445282
366.246	1.21334
369.621	1.19878
372.995	1.3872
376.37	1.51711
379.745	0.04615
383.12	0.15958
386.495	0.130581
389.87	0.073166
393.244	0.073822
396.619	0.153492
399.994	0.306187
403.369	0.170467
406.744	0.633633
410.118	0.241497
413.493	0.21817
416.868	0.766891
420.243	0.748722
423.618	0.434063
426.993	1.20178
430.367	1.85879
433.742	1.78757
437.117	0.773899
440.492	0.949444
443.867	1.04813
447.241	0.934204
450.616	1.3848
453.991	1.08406
457.366	0.685463
460.741	0.367546
464.115	0.769459
467.49	0.503304
470.865	0.469597
474.24	0.712139
477.615	0.791161
480.99	0.55685
484.364	0.739933
487.739	0.531696
491.114	1.40543
494.489	0.960796
497.864	0.307556
501.238	0.481316
504.613	0.88105
507.988	0.611526
511.363	0.647049
514.738	0.608932
518.112	0.407597
521.487	0.450882
524.862	0.14241
528.237	0.071053
531.612	0.425312
534.987	0.125519
538.361	0.171375
541.736	0.059978
545.111	0.637699
548.486	0.401489
551.861	0.544796
555.236	0.451626
558.61	0.660686
561.985	0.064922
565.36	0.566971
568.735	0.643204
572.11	0.23682
575.484	0.253036
578.859	0.219582
582.234	0.491535
585.609	0.572174
588.984	0.403328
592.359	0.042416
595.733	0.402611
599.108	0.579636
602.483	0.343678
605.858	0.797729
609.233	1.32058
612.607	0.580387
615.982	0.351128
619.357	0.074905
622.732	0.087147
626.107	0.0378
629.482	0.175262
632.856	0.579788
636.231	0.582672
639.606	0.214043
642.981	0.423199
646.356	0.727291
649.731	0.39399
653.105	0.001629
656.48	0.624966
659.855	0.502308
663.23	0.495155
666.605	0.465584
669.979	0.132881
673.354	0.751324
676.729	0.501968
680.104	0.644253
683.479	0.687664
686.854	0.328239
690.228	0.291969
693.603	0.371643
696.978	0.125069
700.353	0.367905
703.727	1.7183
707.102	0.31953
710.477	0.324371
713.852	0.098774
717.227	0.281353
720.602	0.113167
723.976	0.009476
727.351	0.367943
730.726	0.083061
734.101	0.293079
737.476	0.308441
740.851	0.165165
744.225	0.619553
747.6	0.1665
750.975	0.294235
754.35	0.028797
757.725	0.290909
761.099	0.58371
764.474	0.451015
767.849	0.726563
771.224	0.335476
774.599	0.393276
777.973	0.396828
781.348	0.114799
784.723	0.404346
788.098	0.977459
791.473	0.861122
794.848	0.886112
798.222	0.571423
801.597	1.08783
804.972	1.09528
808.347	1.23828
811.722	1.11739
815.096	1.34628
818.471	1.00474
821.846	1.80223
825.221	1.52679
828.596	1.35158
831.971	1.65058
835.345	1.74028
838.72	2.14145
842.095	1.82641
845.47	1.85601
848.845	1.5114
852.22	2.02666
855.594	1.53428
858.969	1.57577
862.344	2.0868
865.719	1.91278
869.094	1.90835
872.468	1.5925
875.843	1.27148
879.218	1.31676
882.593	1.26881
885.968	1.76699
889.342	1.0421
892.717	0.565975
896.092	0.50584
899.467	0.939743
902.842	0.201019
906.217	0.336506
909.591	0.230648
912.966	0.299931
916.341	0.131035
919.716	0.229618
923.091	0.567551
926.466	0.146149
929.84	0.213097
933.215	0.183964
936.59	0.187325
939.965	0.802536
943.34	0.061745
946.714	0.882351
950.089	0.159893
953.464	0.464359
956.839	0.284981
960.214	0.278812
963.588	0.122948
966.963	0.273232
970.338	0.206711
973.713	0.30571
977.088	0.089634
980.462	0.339226
983.837	0.734005
987.212	0.484955
990.587	0.459091
993.962	0.44381
997.337	0.303097
1000.71	0.546604
1004.09	0.202461
1007.46	0.2616
1010.84	0.293678
1014.21	0.829514
1017.59	1.01361
1020.96	0.259579
1024.34	0.654377
1027.71	0.662712
1031.09	0.573025
1034.46	0.824448
1037.83	1.14788
1041.21	1.05129
1044.58	0.598885
1047.96	0.703686
1051.33	1.08904
1054.71	0.59285
1058.08	0.881344
1061.46	0.636902
1064.83	0.863964
1068.21	0.676636
1071.58	0.756702
1074.96	0.445614
1078.33	1.2309
1081.71	0.633072
1085.08	0.676437
1088.46	0.860992
1091.83	0.631855
1095.21	0.764732
1098.58	0.351364
1101.96	0.271511
1105.33	0.271473
1108.71	0.311794
1112.08	0.321812
1115.45	0.02037
1118.83	0.016308
1122.2	0.416294
1125.58	0.371956
1128.95	0.03289
1132.33	0.058544
1135.7	0.034451
1139.08	0.072552
1142.45	0.075191
1145.83	0.267269
1149.2	0.247334
1152.58	0.581329
1155.95	0.040428
1159.33	0.828484
1162.7	0.44421
1166.08	0.079075
1169.45	0.204224
1172.83	0.455494
1176.2	0.694542
1179.58	0.064552
1182.95	0.262413
1186.33	0.727245
1189.7	0.052498
1193.08	1.00236
1196.45	0.231209
1199.83	0.37748
1203.2	0.7911
1206.58	0.510815
1209.95	0.753536
1213.33	0.034424
1216.7	0.550251
1220.08	0.222771
1223.45	0.220989
1226.82	0.261364
1230.2	0.259907
1233.57	0.916019
1236.95	0.574959
1240.32	0.547047
1243.7	0.540771
1247.07	0.596111
1250.45	0.172028
1253.82	0.40543
1257.2	0.638794
1260.57	0.425278
1263.95	0.01712
1267.32	0.679516
1270.7	0.952095
1274.07	0.74073
1277.45	0.341248
1280.82	0.680214
