Measurement: Raman, 532 nm, unoriented, Raman Data Processed
Mineral: Cianciulliite
Rruff sample: R150124
Ideal chemistry: Mg_2_Mn^2+^Zn^2+^_2_(OH)_10_2-4H_2_O
Locality: Franklin Mine, Franklin, Sussex Co., New Jersey, USA
Source: Van King
Description: Yellow brown aggregate. A cotype sample from Peter J. Dunn.
Raman shift (cm-1)	intensity
115.335	0
118.71	13.1953
122.085	8.04318
125.46	10.9075
128.835	3.30298
132.209	14.111
135.584	4.32727
138.959	12.9576
142.334	13.2275
145.709	11.884
149.084	13.2143
152.458	18.5554
155.833	15.7795
159.208	9.49527
162.583	10.6198
165.958	8.34763
169.333	3.4372
172.707	0.398163
176.082	2.10333
179.457	0.319977
182.832	0.64035
186.207	5.48383
189.581	0.414795
192.956	3.85922
196.331	9.8782
199.706	3.46494
203.081	1.70395
206.455	2.14136
209.83	0.306641
213.205	7.68307
216.58	5.45654
219.955	8.10834
223.329	7.05228
226.704	3.16684
230.079	4.35077
233.454	3.20218
236.829	5.98477
240.204	10.9813
243.578	6.16025
246.953	3.81381
250.328	4.03616
253.703	6.58972
257.078	3.8956
260.452	1.86774
263.827	5.87097
267.202	3.78888
270.577	4.81635
273.952	10.5122
277.327	9.68179
280.701	8.8277
284.076	4.37109
287.451	5.51032
290.826	3.12491
294.201	1.33548
297.575	6.14459
300.95	0.900818
304.325	0.024261
307.7	1.54956
311.075	8.48395
314.45	1.14386
317.824	2.25354
321.199	1.81671
324.574	2.40811
327.949	0.562256
331.324	5.66525
334.699	2.72699
338.073	2.64993
341.448	5.18063
344.823	4.55844
348.198	5.32925
351.573	6.12021
354.947	9.9635
358.322	8.84305
361.697	7.50382
365.072	1.39606
368.447	6.63214
371.822	3.84088
375.196	3.3346
378.571	5.62634
381.946	5.03015
385.321	8.4704
388.696	5.07748
392.07	2.52634
395.445	5.20868
398.82	5.45782
402.195	4.14523
405.57	7.1655
408.945	6.93884
412.319	4.51941
415.694	7.47278
419.069	6.99371
422.444	7.55316
425.818	6.57721
429.193	4.29016
432.568	0.476074
435.943	3.31635
439.318	7.29175
442.693	2.65759
446.067	5.94934
449.442	3.46845
452.817	4.13489
456.192	2.64301
459.567	1.53497
462.942	4.05066
466.316	3.88434
469.691	2.01978
473.066	8.2674
476.441	3.39203
479.816	0.456421
483.19	1.10834
486.565	14.6193
489.94	13.7781
493.315	9.79541
496.69	5.99908
500.065	8.71948
503.439	9.64862
506.814	9.39227
510.189	3.64478
513.564	10.0095
516.939	8.58734
520.313	9.00098
523.688	10.0113
527.063	12.3912
530.438	8.44031
533.813	8.4234
537.188	4.22174
540.562	2.91913
543.937	5.87903
547.312	5.35877
550.687	5.26813
554.062	5.92328
557.436	2.14911
560.811	1.57013
564.186	1.4436
567.561	1.98743
570.936	3.65308
574.311	3.61475
577.685	2.55243
581.06	6.57202
584.435	0.278809
587.81	0.707581
591.185	4.32306
594.559	9.82721
597.934	5.20557
601.309	2.94916
604.684	9.91504
608.059	13.5944
611.433	15.9832
614.808	17.8027
618.183	28.9053
621.558	31.1874
624.933	37.6857
628.308	44.5455
631.682	51.016
635.057	48.3398
638.432	57.4288
641.807	66.4976
645.182	71.8055
648.557	77.5777
651.931	80.0541
655.306	73.4719
658.681	74.8987
662.056	72.9807
665.431	67.3992
668.805	61.2207
672.18	61.6591
675.555	42.4445
678.93	37.976
682.305	39.7288
685.679	33.3003
689.054	21.8462
692.429	17.8314
695.804	5.6593
699.179	7.104
702.553	5.85992
705.928	4.24225
709.303	3.90912
712.678	2.08789
716.053	2.62799
719.428	0.939941
722.802	1.18585
726.177	0.533813
729.552	2.41321
732.927	0.489502
736.302	0.521179
739.677	0.476196
743.051	0.996399
746.426	0.456421
749.801	1.88599
753.176	0.659729
756.551	5.0155
759.925	4.75842
763.3	4.14539
766.675	6.90985
770.05	5.59405
773.425	6.65295
776.799	7.91803
780.174	7.93097
783.549	11.7319
786.924	7.41107
790.299	3.06616
793.674	11.7596
797.048	5.99487
800.423	9.10492
803.798	9.76276
807.173	8.12006
810.548	4.78503
813.923	6.01971
817.297	7.64203
820.672	14.828
824.047	1.2406
827.422	12.0743
830.797	8.51227
834.171	4.64807
837.546	8.40759
840.921	3.1571
844.296	0.97168
847.671	6.52844
851.045	8.15704
854.42	9.4837
857.795	3.94074
861.17	1.60144
864.545	2.59088
867.92	2.69269
871.294	1.68561
874.669	6.2796
878.044	9.47272
881.419	2.00183
884.794	0.462891
888.168	0.965027
891.543	6.3327
894.918	9.53943
898.293	6.14575
901.668	1.03021
905.043	3.55158
908.417	7.7702
911.792	7.01617
915.167	2.64362
918.542	4.21436
921.917	2.04407
925.291	5.53015
928.666	6.91315
932.041	6.35107
935.416	8.93109
938.791	4.5791
942.165	5.71167
945.54	8.49426
948.915	1.54993
952.29	7.76508
955.665	4.82068
959.04	2.30975
962.414	2.86804
965.789	5.85956
969.164	7.37805
972.539	7.64661
975.914	5.07538
979.288	4.27087
982.663	2.01923
986.038	2.49133
989.413	6.15936
992.788	9.56995
996.163	9.70697
999.537	8.62115
1002.91	4.815
1006.29	5.32898
1009.66	13.647
1013.04	3.08655
1016.41	5.89008
1019.79	8.1521
1023.16	4.448
1026.54	11.7857
1029.91	4.54773
1033.29	3.32898
1036.66	2.68079
1040.04	5.98645
1043.41	7.91693
1046.79	1.01526
1050.16	3.5882
1053.53	5.3963
1056.91	8.4956
1060.28	4.49976
1063.66	4.17297
1067.03	11.1639
1070.41	4.47168
1073.78	3.12433
1077.16	3.57526
1080.53	7.14587
1083.91	4.01996
1087.28	3.67883
1090.66	8.43207
1094.03	7.92279
1097.41	4.99945
1100.78	3.0307
1104.16	5.97882
1107.53	8.04767
1110.91	5.93878
1114.28	7.61444
1117.66	3.82574
1121.03	4.22748
1124.41	5.97784
1127.78	3.17828
1131.15	7.20459
1134.53	7.4256
1137.9	4.56787
1141.28	10.8293
1144.65	4.4715
1148.03	5.11047
1151.4	1.07068
1154.78	10.6503
1158.15	3.2486
1161.53	4.79718
1164.9	3.9295
1168.28	2.15131
1171.65	6.51532
1175.03	1.06232
1178.4	8.65558
1181.78	3.80591
1185.15	5.01343
1188.53	3.2381
1191.9	5.16687
1195.28	2.68225
1198.65	0.096619
1202.03	6.09802
1205.4	3.71307
1208.78	8.26849
1212.15	7.88061
1215.53	11.742
1218.9	6.42456
1222.28	8.82983
1225.65	4.26733
1229.03	1.99762
1232.4	8.0708
1235.78	1.065
1239.15	10.9175
1242.52	4.18579
1245.9	4.40027
1249.27	3.69049
1252.65	0.954712
1256.02	7.22144
1259.4	9.29517
1262.77	6.63861
1266.15	4.10431
1269.52	4.22961
1272.9	3.79981
1276.27	4.25006
1279.65	9.10339
1283.02	5.17352
1286.4	6.49097
1289.77	3.63348
1293.15	8.99634
1296.52	2.96368
1299.9	2.64459
