Measurement: Raman, 514 nm, unoriented, Raman Data Processed
Mineral: Connellite
Rruff sample: X060006
Ideal chemistry: Cu^2+^_36_(S^6+^O_4_)(OH)_62_Cl_8_6H_2_O
Locality: Czar mine, Bisbee, Cochise County, Arizona, USA
Source: University of Arizona Mineral Museum
Description: Single crystal
Raman shift (cm-1)	intensity
165.54	0
169.724	45.547
173.906	57.945
178.086	116.948
182.263	167.059
186.437	175.671
190.609	240.877
194.779	158.031
198.945	43.501
203.11	13.591
207.272	16.213
211.431	23.532
215.588	12.037
219.743	31.658
223.895	34.03
228.044	52.14
232.191	68.616
236.335	90.572
240.477	59.366
244.617	82.798
248.754	74.629
252.888	62.161
257.02	78.436
261.15	134.454
265.277	81.456
269.401	31.787
273.523	14.405
277.643	6.165
281.76	15.43
285.874	6.566
289.987	0.107
294.096	1.477
298.203	9.811
302.308	24.562
306.41	16.952
310.51	39.045
314.607	33.854
318.702	64.136
322.794	58.524
326.884	39.929
330.972	43.309
335.056	40.73
339.139	41.227
343.219	71.142
347.296	121.813
351.372	115.24
355.444	85.114
359.514	44.095
363.582	14.56
367.647	20.465
371.71	74.782
375.77	92.299
379.828	128.484
383.884	146.515
387.937	216.108
391.987	294.284
396.035	504.881
400.081	819.986
404.124	1075.79
408.165	911.708
412.203	544.409
416.239	330.958
420.272	220.246
424.303	129.645
428.332	114.826
432.358	113.787
436.382	115.258
440.403	157.466
444.422	164.58
448.438	168.482
452.452	157.675
456.464	94.718
460.473	100.992
464.479	71.817
468.484	94.835
472.486	61.046
476.485	84.209
480.482	118.2
484.477	106.032
488.469	97.644
492.458	86.693
496.446	73.188
500.431	41.775
504.413	62.451
508.393	27.213
512.371	25.375
516.346	32.268
520.319	29.888
524.289	33.567
528.257	67.646
532.223	27.805
536.186	15.686
540.147	6.607
544.106	11.436
548.062	11.444
552.015	28.075
555.967	11.117
559.915	6.405
563.862	2.687
567.806	13.978
571.747	8.86
575.687	33.953
579.624	38.514
583.558	51.018
587.49	79.811
591.42	80.141
595.347	78.318
599.272	57.342
603.195	36.8
607.115	46.528
611.033	46.6
614.948	51.944
618.861	74.65
622.772	45.376
626.68	37.522
630.586	48.07
634.49	48.822
638.391	26.684
642.29	25.554
646.186	28.54
650.08	3.457
653.972	17.529
657.861	21
661.748	23.055
665.633	20.411
669.515	26.198
673.395	27.276
677.272	16.375
681.148	7.662
685.02	4.7
688.891	5.21
692.759	6.199
696.625	15.21
700.488	7.918
704.349	22.254
708.208	18.927
712.064	1.298
715.918	5.06
719.77	27.667
723.619	23.608
727.466	10.538
731.311	17.727
735.153	8.24
738.993	24.21
742.831	9.505
746.666	5.651
750.499	30.244
754.329	32.782
758.158	15.688
761.984	26.42
765.807	6.229
769.628	17.776
773.447	3.317
777.264	29.295
781.078	41.956
784.89	21.414
788.7	18.607
792.507	47.333
796.312	10.876
800.115	25.178
803.915	4.299
807.713	26.002
811.509	13.311
815.302	32.537
819.093	24.769
822.882	47.026
826.669	10.72
830.453	32.03
834.235	25.004
838.014	3.685
841.791	45.961
845.566	36.949
849.339	24.383
853.109	42.209
856.877	22.264
860.643	23.352
864.406	46.119
868.167	83.271
871.926	132.57
875.683	123.5
879.437	141.67
883.189	84.487
886.939	31.2
890.686	27.74
894.431	17.886
898.174	27.674
901.914	46.71
905.652	147.679
909.388	150.277
913.122	111.531
916.853	107.836
920.582	25.863
924.309	19.678
928.033	8.022
931.755	2.552
935.475	2.709
939.193	1.878
942.908	9.714
946.621	11.716
950.332	5.827
954.041	15.559
957.747	4.644
961.451	12.052
965.153	11.469
968.852	25.51
972.55	45.709
976.244	85.921
979.937	304.03
983.628	447.818
987.316	266.988
991.002	80.287
994.685	32.765
998.367	28.703
1002.05	40.595
1005.72	34.127
1009.4	7.365
1017.46	16.567
1021.2	8.38
1024.94	35.573
1028.69	45.572
1032.42	30.815
1036.16	69.118
1039.9	102.9
1043.63	99.471
1047.36	41.009
1051.09	41.954
1054.81	48.014
1058.54	51.762
1062.26	38.597
1065.97	26.157
1069.69	8.113
1073.41	27.789
1077.12	28.514
1080.83	25.957
1084.54	38.115
1088.24	4.99
1091.95	17.252
1095.65	19.405
1099.35	11.094
1103.05	21.033
1106.74	23.287
1110.43	34.823
1114.12	30.016
1117.81	16.585
1121.5	45.324
1125.18	41.845
1128.86	31.712
1132.54	20.82
1136.22	34.89
1139.9	26.391
1143.57	42.912
1147.24	23.787
1150.91	11.682
1154.58	27.712
1158.24	26.894
1161.9	13.833
1165.56	35.449
1169.22	15.071
1172.88	11.5
1176.53	27.83
1180.18	5.847
1183.83	17.185
1187.48	1.485
1191.12	1.679
1194.77	13.791
1198.41	5.736
1202.05	11.676
1205.68	5.61
1209.32	0.137
1212.95	13.322
1216.58	19.461
1220.21	5.786
1223.83	12.742
1227.46	33.346
1231.08	8.264
1234.7	17.498
1238.32	9.384
1241.93	48.897
1245.54	25.718
1249.15	35.308
1252.76	54.417
1256.37	5.171
1259.97	9.254
1263.58	0.92
1267.17	29.406
1270.77	23.254
1274.37	20.019
1277.96	42.128
1281.55	29.904
1285.14	18.778
1288.73	26.615
1292.32	10.991
1295.9	25.965
1299.48	1.722
1303.06	12.917
1306.63	44.005
1310.21	47.002
1313.78	39.022
1317.35	25.374
1320.92	27.089
1324.48	32.061
1328.05	25.462
1331.61	18.941
1335.17	42.563
1338.73	33.155
1342.28	17.236
1345.84	1.363
1349.39	12.196
1352.94	16.689
1356.48	17.516
1360.03	27.342
1363.57	19.181
1367.11	19.03
1370.65	33.211
1374.19	37.062
1377.72	19.08
1381.25	21.096
1384.78	8.644
1388.31	6.287
1391.84	2.298
1395.36	6.987
1398.88	17.683
1402.4	46.384
1405.92	7.424
1409.43	20.464
1412.95	30.849
1416.46	1.104
1419.97	34.849
1423.47	2.251
1426.98	16.654
1430.48	39.033
1433.98	25.664
1437.48	43.35
1440.98	46.151
1444.47	57.931
1447.96	85.555
1451.45	70.551
1454.94	68.67
1458.43	46.373
1461.91	61.266
1465.39	47.787
1468.87	31.677
1472.35	22.333
1475.83	3.051
1479.3	5.993
1482.77	31.61
1486.24	13.242
1489.71	38.176
1493.17	28.772
1496.64	40.017
1500.1	54.22
1503.56	13.113
1507.02	9.984
1510.47	27.325
1513.92	5.793
1517.37	4.327
1520.82	0.285
1524.27	22.761
1527.71	24.589
1531.16	25.77
1534.6	20.6
1538.04	4.434
1541.47	35.947
1544.91	12.483
1548.34	21.718
1551.77	8.66
1555.2	25.753
1558.62	20.466
1562.05	23.681
1565.47	12.726
1568.89	30.774
1572.31	20.33
1575.72	17.425
1579.14	22.183
1582.55	30.309
1585.96	22.447
1589.37	28.29
1592.77	2.216
1596.18	43.264
1599.58	0.051
