Measurement: Raman, 780 nm, unoriented, Raman Data Processed
Mineral: Connellite
Rruff sample: R060503
Ideal chemistry: Cu^2+^_36_(S^6+^O_4_)(OH)_62_Cl_8_6H_2_O
Locality: Shattuck mine, Bisbee, Cochise County, Arizona, USA
Source: University of Arizona Mineral Museum
Description: Blue thin prismatic crystals
Measured chemistry: Cu_33.68_(SO_4_)_1.83_(OH)_62_Cl_7.55_Â·6H_2_O
Raman shift (cm-1)	intensity
171.591	0
174.484	2.54594
177.377	0.811478
180.269	7.15726
183.162	4.74185
186.055	2.93195
188.947	6.0941
191.84	6.38487
194.733	5.11861
197.625	4.92833
200.518	1.91838
203.411	2.69046
206.304	2.90355
209.196	0.226013
212.089	1.24632
214.982	0.520157
217.874	0.28775
220.767	0.056015
223.66	1.53479
226.553	0.554214
229.445	2.98952
232.338	5.5051
235.231	4.95944
238.123	9.19798
241.016	10.9147
243.909	11.3299
246.801	9.42606
249.694	11.4949
252.587	7.17015
255.48	9.8018
258.372	8.51335
261.265	8.5428
264.158	9.91063
267.05	7.01953
269.943	8.35191
272.836	4.33687
275.728	1.31508
278.621	3.48985
281.514	3.57925
284.406	0.798676
287.299	2.6976
290.192	2.1778
293.085	4.02464
295.977	3.4798
298.87	2.14366
301.763	2.20462
304.655	0.718285
307.548	2.69912
310.441	2.4498
313.334	1.36552
316.226	2.93008
319.119	2.52001
322.012	2.44141
324.904	4.10902
327.797	0.314529
330.69	2.92034
333.582	3.82673
336.475	4.10397
339.368	3.29399
342.26	5.0033
345.153	4.12293
348.046	2.26607
350.938	5.84068
353.831	0.561218
356.724	1.21134
359.617	0.179512
362.509	0.541801
365.402	0.344734
368.295	1.89584
371.187	4.01283
374.08	4.05141
376.973	2.53389
379.865	3.8665
382.758	7.36761
385.651	8.80628
388.544	9.54357
391.436	11.3141
394.329	13.484
397.222	19.522
400.114	22.8327
403.007	21.0988
405.9	22.7697
408.793	18.3434
411.685	13.4944
414.578	6.56862
417.471	4.88418
420.363	1.48549
423.256	1.9515
426.149	1.29633
429.041	1.00618
431.934	1.06449
434.827	1.38183
437.719	2.80558
440.612	2.08794
443.505	2.13364
446.398	1.10414
449.29	1.55123
452.183	1.06684
455.076	2.52685
457.968	3.34941
460.861	0.171989
463.754	3.43682
466.647	2.63811
469.539	4.30926
472.432	3.72747
475.325	3.22014
478.217	3.45759
481.11	2.27232
484.003	1.71014
486.895	5.06319
489.788	3.52399
492.681	3.83453
495.573	4.95949
498.466	1.92648
501.359	4.04489
504.252	2.86095
507.144	3.28412
510.037	2.15353
512.93	3.82809
515.822	0.871552
518.715	2.68406
521.608	3.73592
524.5	1.73701
527.393	1.45828
530.286	0.623245
533.178	0.37796
536.071	0.454536
538.964	0.407288
541.857	4.50536
544.749	1.48479
547.642	2.42289
550.535	2.56451
553.427	0.616577
556.32	2.17959
559.213	1.92326
562.106	4.44961
564.998	3.05001
567.891	2.52982
570.784	4.35294
573.676	5.02839
576.569	2.97062
579.462	1.76572
582.354	2.83557
585.247	5.00816
588.14	6.14992
591.033	1.92725
593.925	4.6592
596.818	2.66318
599.711	4.52304
602.603	3.85165
605.496	4.26426
608.389	5.04624
611.281	2.56004
614.174	4.57209
617.067	2.68539
619.96	2.1189
622.852	2.30833
625.745	1.48539
628.638	0.713341
631.53	2.30618
634.423	4.2277
637.316	1.38477
640.208	2.59167
643.101	1.46977
645.994	1.3791
648.886	1.94006
651.779	2.78497
654.672	5.4051
657.564	2.4891
660.457	1.12482
663.35	3.3051
666.243	1.81599
669.135	3.23912
672.028	2.14911
674.921	3.93491
677.813	2.98514
680.706	3.1201
683.599	1.26413
686.491	1.65707
689.384	3.82095
692.277	3.5701
695.17	2.38168
698.062	4.24486
700.955	3.11297
703.848	0.851982
706.74	0.985344
709.633	2.08558
712.526	1.07916
715.418	2.65025
718.311	2.15054
721.204	4.28529
724.097	1.50574
726.989	0.2146
729.882	1.10885
732.775	1.09309
735.667	2.74663
738.56	1.55702
741.453	2.24349
744.346	0.585487
747.238	0.834961
750.131	0.491554
753.024	2.2893
755.916	2.1246
758.809	1.95661
761.702	2.99599
764.594	1.38856
767.487	0.434021
770.38	1.28107
773.273	0.463379
776.165	2.35675
779.058	1.8367
781.951	1.99022
784.843	1.73427
787.736	3.55057
790.629	4.58232
793.521	3.72548
796.414	1.95315
799.307	0.119431
802.199	4.92507
805.092	3.75242
807.985	3.93052
810.878	5.47603
813.77	5.14611
816.663	5.2634
819.556	5.38687
822.448	6.47268
825.341	8.79287
828.234	7.84185
831.126	7.37458
834.019	7.61428
836.912	7.44442
839.804	6.21767
842.697	8.88779
845.59	8.97884
848.483	10.2535
851.375	9.25093
854.268	9.56781
857.161	7.80833
860.053	10.5498
862.946	9.48212
865.839	10.0427
868.731	7.54413
871.624	10.5559
874.517	8.79393
877.409	7.51385
880.302	6.89068
883.195	5.90324
886.088	5.27823
888.98	6.42284
891.873	5.02424
894.766	5.40441
897.658	5.70625
900.551	3.27062
903.444	4.53559
906.337	3.94396
909.229	3.88226
912.122	1.17948
915.015	0.018322
917.907	0.337341
920.8	0.720669
923.693	0.654305
926.585	2.71643
929.478	1.12769
932.371	1.25405
935.264	3.30372
938.156	1.90458
941.049	0.078629
943.942	0.333652
946.834	0.161507
949.727	0.95364
952.62	0.335438
955.512	4.24207
958.405	3.49806
961.298	3.04689
964.191	3.58182
967.083	1.92033
969.976	2.3769
972.869	5.33795
975.761	4.7557
978.654	11.8209
981.547	13.36
984.439	17.3374
987.332	13.0202
990.225	7.44942
993.117	2.90452
996.01	0.925735
998.903	2.28285
1001.8	2.07065
1004.69	1.27241
1007.58	0.483414
1010.47	0.355129
1013.37	0.784389
1016.26	1.70419
1019.15	2.05339
1022.04	3.52339
1024.94	4.62693
1027.83	2.9151
1030.72	5.18843
1033.62	4.63293
1036.51	7.61812
1039.4	5.48972
1042.29	6.63505
1045.19	6.51048
1048.08	5.01846
1050.97	4.94627
1053.86	6.1344
1056.76	2.9664
1059.65	4.26226
1062.54	5.32128
1065.43	1.85219
1068.33	1.92331
1071.22	1.80026
1074.11	0.95903
1077.01	2.33953
1079.9	4.19224
1082.79	1.23154
1085.68	1.48363
1088.58	3.83282
1091.47	2.86735
1094.36	2.26983
1097.26	2.27013
1100.15	2.07144
1103.04	1.84043
1105.93	0.292156
1108.83	0.154564
1111.72	0.241112
1114.61	1.77148
1117.5	1.5039
1120.4	0.400864
1123.29	2.23103
1126.18	0.23988
1129.07	1.06254
1131.97	1.43081
1134.86	1.44176
1137.75	0.604176
1140.64	0.523613
1143.54	3.65222
1146.43	0.801807
1149.32	2.14254
1152.22	4.54453
1155.11	2.71871
1158	1.88833
1160.89	1.37916
1163.79	1.11911
1166.68	1.37683
1169.57	3.29257
1172.46	3.40521
1175.36	0.675022
1178.25	2.81996
1181.14	3.23594
1184.04	2.96336
1186.93	1.29905
1189.82	1.32988
1192.71	0.35178
1195.61	1.31786
1198.5	1.84944
1201.39	2.22987
1204.28	1.33647
1207.18	3.54908
1210.07	2.63186
1212.96	2.15857
1215.86	2.95059
1218.75	0.101772
1221.64	3.65832
1224.53	1.53284
1227.43	2.61875
1230.32	1.3732
1233.21	1.68698
1236.1	0.610569
1239	0.733849
1241.89	2.3008
1244.78	0.017078
1247.67	2.00128
1250.57	1.33834
1253.46	1.96581
1256.35	2.59919
1259.25	0.96463
1262.14	1.71182
1265.03	1.3458
1267.92	4.70202
1270.82	3.05994
1273.71	1.61584
1276.6	2.56026
1279.49	2.22114
1282.39	0.534107
