Measurement: Raman, 785 nm, unoriented, Raman Data Processed
Mineral: Corundum
Rruff sample: X050043
Ideal chemistry: Al_2_O_3_
Locality: Malacachita, Minas Gerais, Brazil
Source: G.R. Rossman
Raman shift (cm-1)	intensity
206	0
210	0.378
214	25.431
218	54.151
222	76.32
226	95.656
230	106.61
234	111.996
238	113.075
242	117.825
246	109.176
250	106.947
254	100.286
258	85.558
262	69.909
266	56.053
270	41.427
274	32.09
278	26.056
282	22.689
286	13.257
290	2.852
294	4.836
298	7.858
302	5.05
306	3.088
310	0.162
314	1.999
318	2.299
322	6.399
326	7.089
330	11.437
334	16.328
338	22.864
342	29.206
346	29.062
350	30.708
354	38.178
358	47.653
362	55.425
366	61.342
370	73.657
374	103.501
378	180.634
382	121.915
386	85.909
390	84.383
394	85.198
398	84.989
402	91.506
406	101.215
410	134.616
414	357.604
418	426.947
422	129.295
426	89.359
430	92.372
434	79.082
438	72.773
442	75.855
446	83.775
450	81.932
454	77.597
458	78.776
462	82.366
466	87.951
470	95.311
474	98.769
478	92.645
482	84.434
486	76.83
490	66.791
494	60.14
498	64.086
502	60.579
506	53.801
510	48.415
514	38.635
518	30.7
522	26.447
526	25.119
530	23.592
534	23.094
538	25.564
542	24.392
546	23.156
550	17.71
554	12.517
558	7.483
562	3.551
566	3.589
570	4.674
574	9.704
578	8.455
582	4.851
586	0.139
590	2.585
594	2.831
598	3.096
602	2.345
606	0.6
610	1.852
614	0.792
618	0.837
622	0.247
626	3.793
630	7.316
634	21.041
638	51.543
642	100.146
646	97.618
650	63.517
654	53.671
658	54.429
662	61.212
666	66.343
670	67.686
674	65.615
678	60.282
682	55.174
686	54.078
690	60.662
694	76.462
698	94.089
702	106.5
706	98.278
710	70.087
714	43.435
718	26.915
722	16.561
726	12.318
730	8.165
734	6.897
738	6.965
742	10.073
746	14.406
750	14.305
754	11.487
758	5.923
762	2.176
766	0.746
770	0.77
774	0.078
778	1.099
782	2.744
786	4.244
790	4.688
794	6.172
798	5.966
802	6.448
806	7.082
810	5.83
814	5.1
818	6.158
822	5.845
826	5.723
830	5.587
834	4.461
838	3.374
842	3.262
846	3.968
850	2.589
854	1.873
858	2.458
862	0.977
866	1.764
870	1.347
874	0.511
878	0.141
882	0.209
886	0.198
890	1.048
894	0.328
898	0.291
902	0.76
906	0.205
910	0.401
914	0.537
918	0.867
922	2.183
926	2.105
930	1.985
934	2.068
938	1.168
942	1.981
946	1.609
950	1.675
954	1.83
958	1.904
962	1.002
966	1.047
970	1.112
974	1.081
978	0.184
982	1.06
986	0.795
990	0.449
994	0.045
998	0.988
1002	0.132
1006	0.701
1010	0.425
1014	0.967
1018	1.347
1022	3.415
1026	0.248
1030	1.336
1034	1.677
1038	1.331
1042	1.573
1046	2.092
1050	1.99
1054	2.232
1058	3.178
1062	3.281
1066	2.702
1070	3.115
1074	2.517
1078	2.812
1082	2.302
1086	2.657
1090	2.662
1094	1.873
1098	1.989
1102	3.013
1106	2.344
1110	1.909
1114	1.928
1118	1.976
1122	3.172
1126	1.425
1130	2.766
1134	2.999
1138	2.554
1142	1.744
1146	1.871
1150	3.128
1154	2.38
1158	3.517
1162	3.005
1166	3.59
1170	3.732
1174	3.837
1178	4.021
1182	3.727
1186	3.155
1190	2.969
1194	4.014
1198	2.556
1202	1.879
1206	2.035
1210	3.335
1214	1.605
1218	1.057
1222	1.157
1226	1.622
1230	1.712
1234	0.423
1238	0.81
1242	0.631
1246	0.512
1250	1.121
1254	0.828
1258	0.682
1262	0.963
1266	0.452
1270	0.374
1274	0.151
1278	0.945
1282	0.553
1286	0.05
1290	1.338
1294	0.962
1298	1.442
1302	1.442
1306	0.988
1310	1.26
1314	0.427
1318	1.101
1322	1.07
1326	1.619
1330	1.674
1334	1.957
1338	2.131
1342	1.585
1346	2.81
1350	3.086
1354	2.99
1358	1.665
1362	1.876
1366	2.598
1370	3.567
1374	2.461
1378	1.7
1382	2.076
1386	2.321
1390	2.168
1394	1.064
1398	2.002
1402	2.277
1406	2.175
1410	1.731
1414	1.328
1418	1.318
1422	0.528
1426	0.132
1430	0.112
1434	1.349
1438	1.673
1442	0.114
1446	1.186
1450	0.249
1454	0.753
1458	1.803
1462	0.747
1466	1.207
1470	0.955
1474	1.747
1478	1.815
1482	2.279
1486	0.971
1490	0.969
1494	0.999
1498	2.227
