Measurement: Raman, 514 nm, unoriented, Raman Data Processed
Mineral: Corundum
Rruff sample: X050045
Ideal chemistry: Al_2_O_3_
Locality: Queenland, Australia
Source: G.R. Rossman
Raman shift (cm-1)	intensity
199.6	0
204.6	2.285
209.7	44.435
214.7	134.509
219.8	327.971
224.8	417.325
229.9	639.104
234.9	819.072
240	1151.73
245	1446.43
250.1	1659.69
255.1	1745.56
260.2	1597.22
265.2	1447.83
270.3	1341.71
275.3	1129.72
280.4	941.08
285.4	777.73
290.5	474.023
295.5	208.498
300.6	61.898
305.6	0.542
310.7	6.588
315.7	24.926
320.8	7.417
325.8	13.91
330.9	33.768
335.9	107.207
341	71.059
346	155.448
351.1	251.696
356.2	320.795
361.2	684.034
366.3	1064.9
371.3	2022.21
376.4	4755.46
381.4	7654.69
386.5	5458.13
391.5	2689.15
396.6	1980.55
401.6	2159.79
406.7	2808.86
411.7	6896.29
416.8	15392.7
421.8	17204
426.9	9163.45
431.9	4377.5
437	3253.84
442	2323.97
447.1	2105.88
452.1	2048.41
457.2	1912.13
462.2	1735.45
467.3	1770.47
472.3	1815.61
477.4	1945.28
482.4	2051.82
487.5	2009.67
492.5	1899.38
497.6	1681.92
502.6	1471.35
507.7	1385.68
512.7	1338.63
517.8	1305.74
522.8	1415.76
527.9	1491.57
532.9	1589.71
538	1555.03
543	1556.52
548.1	1378.79
553.1	1302.44
558.2	1230.58
563.2	1057.63
568.3	1009.82
573.3	1345.7
578.4	1762.02
583.4	1359.73
588.5	821.922
593.5	544.626
598.6	484.907
603.6	547.611
608.7	639.018
613.8	646.389
618.8	722.205
623.9	870.248
628.9	961.456
634	1410.34
639	2668.19
644.1	4668.27
649.1	5149.66
654.2	3432.21
659.2	2191.52
664.3	1827.45
669.3	1773.53
674.4	1714.9
679.4	1649.56
684.5	1242.11
689.5	1169.81
694.6	1061.5
699.6	1059.68
704.7	1078.85
709.7	1213.02
714.8	936.996
719.8	610.877
724.9	566.115
729.9	700.68
735	1074.39
740	1780.75
745.1	3080.06
750.1	4518.96
755.2	4684.42
760.2	3784.25
765.3	2729.65
770.3	2184.96
775.4	2090.87
780.4	2009.22
785.5	2003.12
790.5	2125.97
795.6	2356.5
800.6	2604.51
805.7	3265.29
810.7	3860.77
815.8	4090.23
820.8	3542.86
825.9	2662.27
830.9	2208.13
836	2093.78
841	2343.32
846.1	2956.59
851.1	3439.32
856.2	3438.36
861.3	2586.46
866.3	1674.01
871.4	1055.54
876.4	787.518
881.5	542.86
886.5	427.768
891.6	281.82
896.6	182.314
901.7	118.462
906.7	65.252
911.8	47.715
916.8	3.568
921.9	8.478
926.9	95.453
932	12.33
937	0.462
942.1	16.14
947.1	31.874
952.2	47.654
957.2	63.472
962.3	64.898
967.3	34.341
972.4	99.458
977.4	122.181
982.5	157.388
987.5	119.935
992.6	78.353
997.6	86.669
1002.7	40.101
1007.7	1.129
1012.8	16.125
1017.8	6.465
1022.9	0.751
1027.9	17.586
1033	5.724
1038	88.087
1043.1	17.811
1048.1	64.552
1053.2	50.234
1058.2	50.589
1063.3	9.232
1068.3	38.366
1073.4	56.602
1078.4	20.875
1083.5	20.093
1088.5	6.825
1093.6	22.291
1098.6	6.111
1103.7	6.357
1108.7	33.99
1113.8	9.852
1118.9	62.044
1123.9	16.266
1129	27.752
1134	1.703
1139.1	60.046
1144.1	19.986
1149.2	2.812
1154.2	24.427
1159.3	107.56
1164.3	122.471
1169.4	143.848
1174.4	121.337
1179.5	132.332
1184.5	85.708
1189.6	136.477
1194.6	125.843
1199.7	151.927
1204.7	227.746
1209.8	184.458
1214.8	120.594
1219.9	87.342
1224.9	160.072
1230	89.093
1235	142.853
1240.1	165.767
1245.1	119.295
1250.2	144.055
1255.2	108.923
1260.3	62.258
1265.3	46.187
1270.4	105.281
1275.4	60.648
1280.5	84.197
1285.5	125.885
1290.6	149.52
1295.6	122.845
1300.7	101.6
1305.7	105.145
1310.8	159.883
1315.8	165.532
1320.9	110.348
1325.9	206.45
1331	205.136
1336	201.007
1341.1	325.405
1346.1	280.753
1351.2	395.625
1356.2	429.879
1361.3	379.805
1366.3	419.965
1371.4	263.268
1376.5	239.702
1381.5	339.061
1386.6	261.963
1391.6	226.726
1396.7	136.744
1401.7	137.695
1406.8	125.309
1411.8	95.904
1416.9	119.205
1421.9	88.005
1427	72.631
1432	11.479
1437.1	14.22
1442.1	6.225
1447.2	30.434
1452.2	23.133
1457.3	27.283
1462.3	36.721
1467.4	10.856
1472.4	72.511
1477.5	11.564
1482.5	28.616
1487.6	89.987
1492.6	21.099
1497.7	22.542
