Measurement: Raman, 785 nm, unoriented, Raman Data Processed
Mineral: Corundum
Rruff sample: X050042
Ideal chemistry: Al_2_O_3_
Locality: Australia
Source: G.R. Rossman
Description: var. Sapphire
Raman shift (cm-1)	intensity
206	0
210	1.29
214	19.249
218	57.046
222	118.53
226	186.524
230	246.627
234	289.96
238	313.248
242	318.586
246	291.394
250	252.725
254	228.772
258	191.881
262	154.656
266	124.475
270	92.732
274	73.765
278	70.225
282	68.493
286	45.235
290	14.476
294	2.559
298	10.521
302	11.467
306	9.02
310	0.776
314	8.935
318	16.411
322	23.905
326	35.49
330	49.993
334	61.31
338	78.541
342	82.453
346	70.101
350	70.692
354	75.525
358	78.19
362	85.84
366	90.846
370	98.525
374	113.436
378	154.604
382	128.184
386	115.65
390	114.981
394	120.402
398	121.383
402	125.099
406	129.202
410	143.29
414	270.441
418	341.909
422	153.691
426	120.654
430	121.568
434	115.976
438	113.343
442	113.388
446	113.149
450	111.363
454	109.059
458	108.194
462	106.881
466	105.848
470	106.074
474	107.744
478	99.639
482	93.186
486	87.154
490	78.09
494	69.156
498	65.559
502	56.698
506	48.825
510	39.949
514	32.602
518	26.285
522	21.698
526	18.4
530	14.877
534	12.311
538	11.82
542	8.965
546	7.677
550	6.045
554	2.621
558	0.677
562	1.329
566	0.104
570	0.668
574	0.607
578	1.241
582	0.753
586	1.745
590	2.359
594	2.17
598	0.591
602	2.189
606	1.408
610	1.294
614	1.483
618	1.027
622	0.128
626	2.778
630	5.78
634	12.392
638	33.442
642	69.999
646	66.569
650	40.883
654	31.319
658	30.249
662	31.674
666	34.839
670	34.856
674	33.737
678	31.713
682	28.833
686	28.762
690	31.24
694	36.071
698	44.824
702	49.045
706	43.041
710	28.853
714	15.283
718	9.584
722	4.836
726	2.926
730	2.039
734	1.253
738	1.544
742	2.838
746	5.133
750	6.977
754	5.381
758	3.781
762	2.194
766	0.517
770	0.07
774	0.534
778	1.098
782	3.16
786	2.94
790	5.44
794	6.711
798	6.129
802	7.608
806	6.856
810	7.874
814	6.248
818	6.62
822	6.247
826	5.416
830	5.782
834	6.111
838	4.505
842	4.697
846	3.114
850	4.197
854	2.753
858	2.319
862	1.97
866	1.534
870	1.754
874	2.094
878	0.386
882	0.961
886	0.527
890	0.64
894	0.174
898	0.704
902	0.216
906	0.792
910	0.351
914	0.737
918	1.283
922	1.231
926	1.543
930	0.429
934	0.714
938	1.156
942	0.986
946	0.807
950	0.595
954	2.372
958	0.645
962	0.863
966	2.055
970	1.259
974	1.927
978	0.971
982	1.553
986	1.429
990	1.298
994	1.839
998	2.379
1002	1.738
1006	2.228
1010	1.312
1014	1.734
1018	2.207
1022	1.547
1026	0.946
1030	1.509
1034	2.675
1038	1.312
1042	1.652
1046	1.504
1050	0.898
1054	1.774
1058	1.422
1062	1.454
1066	2.628
1070	2
1074	1.426
1078	1.659
1082	1.08
1086	0.673
1090	0.335
1094	0.027
1098	0.324
1102	0.633
1106	0.733
1110	0.262
1114	0.589
1118	3.432
1122	0.015
1126	0.105
1130	0.384
1134	0.161
1138	1.472
1142	0.09
1146	1.144
1150	0.335
1154	1.028
1158	0.149
1162	1.012
1166	2.102
1170	2.101
1174	1.433
1178	1.736
1182	2.056
1186	1.378
1190	1.7
1194	2.017
1198	2.425
1202	1.6
1206	2.027
1210	1.341
1214	1.666
1218	1.973
1222	2.276
1226	1.406
1230	1.29
1234	1.165
1238	1.244
1242	0.778
1246	0.097
1250	0.041
1254	0.72
1258	0.248
1262	0.334
1266	0.157
1270	0.944
1274	1.251
1278	0.556
1282	0.864
1286	0.492
1290	0.468
1294	0.022
1298	0.069
1302	0.556
1306	1.153
1310	0.441
1314	0.263
1318	0.556
1322	0.374
1326	1.397
1330	0.516
1334	1.074
1338	0.643
1342	1.51
1346	1.652
1350	1.14
1354	2.307
1358	2.584
1362	1.839
1366	3.117
1370	2.23
1374	0.587
1378	0.85
1382	1.372
1386	0.41
1390	2.272
1394	2.195
1398	3.121
1402	2.338
1406	1.593
1410	1.757
1414	1.114
1418	1.612
1422	1.599
1426	0.914
1430	0.074
1434	1.475
1438	0.708
1442	0.618
1446	0.263
1450	1.112
1454	1.019
1458	1.671
1462	1.267
1466	2.296
1470	1.914
1474	1.852
1478	2.047
1482	2.343
1486	0.806
1490	0.133
1494	1.764
1498	0.539
