Measurement: Raman, 514 nm, unoriented, Raman Data Processed
Mineral: Corundum
Rruff sample: X050044
Ideal chemistry: Al_2_O_3_
Locality: Queensland, Australia
Source: G.R. Rossman
Raman shift (cm-1)	intensity
199.6	0
204.6	11.956
209.7	12.68
214.7	159.199
219.8	345.999
224.8	478.605
229.9	770.658
234.9	1139.93
240	1642.32
245	2057.89
250.1	2370.97
255.1	2322.08
260.2	2245.44
265.2	2203.24
270.3	2068.98
275.3	1823.54
280.4	1521.56
285.4	1323.17
290.5	878.091
295.5	527.213
300.6	252.469
305.6	107.428
310.7	53.038
315.7	21.309
320.8	4.165
325.8	91.399
330.9	88.797
335.9	112.071
341	93.361
346	21.178
351.1	315.211
356.2	482.527
361.2	863.294
366.3	1218.08
371.3	1635.34
376.4	2016.08
381.4	2378.2
386.5	2375.29
391.5	2284.52
396.6	2290.54
401.6	2562.66
406.7	3051.65
411.7	6035.78
416.8	11439.9
421.8	11784.9
426.9	6487.54
431.9	3448.04
437	2838.33
442	2694.05
447.1	2959.33
452.1	3061.94
457.2	2563.23
462.2	2343.13
467.3	2430.82
472.3	2552.59
477.4	2585.32
482.4	2742.91
487.5	2788.39
492.5	2688.63
497.6	2370.68
502.6	2132.48
507.7	2016.34
512.7	1979.24
517.8	2023.38
522.8	2134.16
527.9	2183.05
532.9	2294.53
538	2238.11
543	2232.81
548.1	2194.91
553.1	2141.48
558.2	1864.48
563.2	1693.34
568.3	1905.16
573.3	2779.72
578.4	3554.46
583.4	2850.58
588.5	1834.41
593.5	1322.6
598.6	1253.78
603.6	1323.71
608.7	1365.62
613.8	1503.58
618.8	1510.64
623.9	1494.45
628.9	1585.74
634	1577.92
639	1408.96
644.1	1583.92
649.1	1716.23
654.2	1895.56
659.2	1910.24
664.3	2012.14
669.3	2273.95
674.4	2288.61
679.4	2174.22
684.5	2003.57
689.5	1801.3
694.6	1616.2
699.6	1605.6
704.7	1676.34
709.7	1783.31
714.8	1487.72
719.8	1179.62
724.9	1047.28
729.9	1475.69
735	2181.38
740	3636.66
745.1	6363.06
750.1	9144.3
755.2	9133.37
760.2	6612.35
765.3	4530.41
770.3	3495.35
775.4	3159.93
780.4	3197.25
785.5	3104.86
790.5	3185.23
795.6	3194.41
800.6	3360.94
805.7	3597.44
810.7	3729.3
815.8	3612.34
820.8	3159.7
825.9	2547.52
830.9	2194.35
836	1933.04
841	1932.48
846.1	1973.17
851.1	2038.95
856.2	1737.88
861.3	1437.05
866.3	1046.42
871.4	842.456
876.4	655.79
881.5	481.404
886.5	368.881
891.6	245.35
896.6	150.208
901.7	61.008
906.7	58.479
911.8	12.935
916.8	59.941
921.9	22.577
926.9	47.459
932	9.044
937	42.152
942.1	22.461
947.1	26.309
952.2	69.196
957.2	78.537
962.3	56.874
967.3	162.742
972.4	113.018
977.4	155.683
982.5	7.065
987.5	130.991
992.6	84.532
997.6	82.757
1002.7	83.707
1007.7	17.356
1012.8	66.806
1017.8	27.634
1022.9	48.81
1027.9	26.822
1033	12.135
1038	86.485
1043.1	72.799
1048.1	119.722
1053.2	96.722
1058.2	96.26
1063.3	75.313
1068.3	87.711
1073.4	104.473
1078.4	75.276
1083.5	30.9
1088.5	73.346
1093.6	3.56
1098.6	7.325
1103.7	21.468
1108.7	70.355
1113.8	18.577
1118.9	1.778
1123.9	48.272
1129	9.388
1134	47.18
1139.1	6.69
1144.1	56.562
1149.2	104.969
1154.2	32.249
1159.3	6.896
1164.3	64.053
1169.4	142.264
1174.4	14.394
1179.5	115.271
1184.5	133.512
1189.6	82.097
1194.6	81.823
1199.7	108.082
1204.7	114.054
1209.8	190.92
1214.8	153.064
1219.9	116.251
1224.9	72.93
1230	85.174
1235	2.226
1240.1	55.158
1245.1	74.481
1250.2	86.283
1255.2	75.3
1260.3	53.384
1265.3	58.653
1270.4	10.86
1275.4	91.937
1280.5	107.047
1285.5	85.203
1290.6	99.361
1295.6	138.213
1300.7	128.481
1305.7	163.734
1310.8	159.019
1315.8	65.646
1320.9	137.347
1325.9	240.085
1331	254.029
1336	387.576
1341.1	364.52
1346.1	415.256
1351.2	507.856
1356.2	515.581
1361.3	438.839
1366.3	453.58
1371.4	456.177
1376.5	383.281
1381.5	377.879
1386.6	348.359
1391.6	208.743
1396.7	236.86
1401.7	206.109
1406.8	185.554
1411.8	158.425
1416.9	198.979
1421.9	100.967
1427	40.851
1432	115.811
1437.1	73.523
1442.1	117.994
1447.2	94.659
1452.2	31.104
1457.3	9.637
1462.3	2.943
1467.4	95.738
1472.4	1.529
1477.5	86.01
1482.5	36.779
1487.6	64.416
1492.6	86.338
1497.7	0.097
