Measurement: Raman, 532 nm, unoriented, Raman Data Processed
Mineral: Crandallite
Rruff sample: R140429
Ideal chemistry: CaAl_3_(PO_4_)(PO_3_OH)(OH)_6_
Locality: Savannah Pit, Tyrone mine, Grant County, New Mexico, USA
Source: Ron Gibbs
Description: Colorless, hexagonal platy crystals
Raman shift (cm-1)	intensity
140.687	0
144.062	2.74683
147.437	11.2106
150.812	15.1023
154.187	14.3505
157.561	3.5221
160.936	1.63855
164.311	5.90234
167.686	6.14502
171.061	25.9594
174.436	40.2936
177.81	54.7179
181.185	76.0968
184.56	102.51
187.935	103.245
191.31	82.9213
194.685	61.2626
198.059	37.6997
201.434	18.5706
204.809	9.41724
208.184	9.63989
211.559	14.0863
214.933	17.7085
218.308	6.76465
221.683	2.98584
225.058	2.90576
228.433	3.0166
231.808	7.72021
235.182	9.19446
238.557	8.98132
241.932	21.6437
245.307	47.5884
248.682	70.1425
252.056	94.0914
255.431	121.818
258.806	152.554
262.181	171.013
265.556	169.263
268.93	142.642
272.305	125.912
275.68	101.759
279.055	75.3208
282.43	46.2476
285.805	32.99
289.179	24.9734
292.554	10.2551
295.929	8.63794
299.304	7.30176
302.679	5.36963
306.053	6.72681
309.428	2.95386
312.803	2.28638
316.178	1.89233
319.553	3.66065
322.928	1.01196
326.302	3.3335
329.677	8.69922
333.052	7.51709
336.427	18.27
339.802	22.4302
343.176	26.2991
346.551	29.5591
349.926	23.4963
353.301	30.1665
356.676	27.0015
360.051	19.5386
363.425	26.0151
366.8	29.3003
370.175	24.6426
373.55	19.8804
376.925	11.5193
380.3	3.7146
383.674	10.1765
387.049	12.541
390.424	8.74365
393.799	7.89356
397.174	13.2117
400.548	19.2759
403.923	18.6123
407.298	17.0591
410.673	18.9473
414.048	17.7131
417.423	10.9138
420.797	4.96704
424.172	1.70142
427.547	4.09082
430.922	4.34473
434.296	5.54468
437.671	11.7398
441.046	16.0742
444.421	24.4956
447.796	40.9575
451.171	49.1382
454.545	61.0437
457.92	91.9009
461.295	132.381
464.67	160.097
468.045	168.228
471.42	169.731
474.794	135.144
478.169	81.521
481.544	39.4363
484.919	22.9785
488.294	2.52222
491.668	4.1001
495.043	2.20239
498.418	1.05615
501.793	0.367432
505.168	1.56811
508.543	6.15698
511.917	4.81299
515.292	1.93384
518.667	8.65723
522.042	21.7688
525.417	29.5911
528.791	16.8137
532.166	2.81323
535.541	3.54346
538.916	3.40063
542.291	4.30762
545.665	4.48022
549.04	7.16431
552.415	14.0703
555.79	12.8223
559.165	10.1646
562.54	14.4297
565.914	8.09595
569.289	15.1492
572.664	14.3174
576.039	16.4041
579.414	14.3323
582.788	21.9736
586.163	33.8872
589.538	44.294
592.913	56.0081
596.288	83.1856
599.663	120.593
603.037	142.646
606.412	158.093
609.787	153.122
613.162	133.024
616.537	104.068
619.912	74.033
623.286	49.085
626.661	39.3616
630.036	24.2834
633.411	16.1396
636.786	22.0273
640.16	16.1545
643.535	13.9902
646.91	13.8862
650.285	12.6148
653.66	12.6065
657.034	9.34106
660.409	10.5173
663.784	3.39575
667.159	8.65308
670.534	17.2781
673.909	13.8491
677.283	1.49609
680.658	3.3894
684.033	8.72144
687.408	18.5352
690.783	12.1543
694.158	1.69922
697.532	0.138184
700.907	1.90869
704.282	4.65674
707.657	7.19873
711.032	6.24219
714.406	3.46143
717.781	0.389648
721.156	4.37427
724.531	2.33643
727.906	4.27173
731.28	6.00049
734.655	8.36304
738.03	20.6514
741.405	13.1028
744.78	5.09009
748.154	2.98364
751.529	5.12598
754.904	7.65918
758.279	12.4045
761.654	8.70776
765.029	13.2217
768.403	1.56421
771.778	5.56714
775.153	3.26782
778.528	4.89478
781.903	12.5007
785.278	7.98022
788.652	7.28662
792.027	11.6116
795.402	11.9424
798.777	19.584
802.152	12.3855
805.526	6.97681
808.901	5.99683
812.276	13.0762
815.651	14.5501
819.026	31.9331
822.4	13.1848
825.775	11.5029
829.15	15.1834
832.525	22.4624
835.9	31.5342
839.275	26.7168
842.649	29.4294
846.024	25.2937
849.399	13.283
852.774	17.291
856.149	20.1099
859.524	10.2932
862.898	9.23291
866.273	11.761
869.648	13.0718
873.023	2.94312
876.398	0.583008
879.773	1.02954
883.147	4.97974
886.522	13.3438
889.897	25.9363
893.272	28.0889
896.646	27.5391
900.021	42.3931
903.396	53.9126
906.771	53.2602
910.146	48.3306
913.521	47.9839
916.895	42.2188
920.27	35.7634
923.645	27.2522
927.02	20.5837
930.395	16.9927
933.769	8.39404
937.144	6.87549
940.519	2.63037
943.894	2.3186
947.269	3.40869
950.644	0.213867
954.018	2.02417
957.393	6.15942
960.768	4.33545
964.143	16.6848
967.518	29.5596
970.893	53.9197
974.267	73.3052
977.642	114.346
981.017	139.847
984.392	160.949
987.767	173.626
991.141	172.444
994.516	164.631
997.891	137.719
1001.27	97.4983
1004.64	74.3103
1008.02	59.6777
1011.39	55.2888
1014.76	54.1001
1018.14	68.3603
1021.51	98.1501
1024.89	137.547
1028.26	164.929
1031.64	151.737
1035.01	136.979
1038.39	117.862
1041.76	101.36
1045.14	78.6931
1048.51	54.2639
1051.89	40.7605
1055.26	36.8792
1058.64	26.1943
1062.01	14.856
1065.39	5.32935
1068.76	4.28491
1072.14	4.20703
1075.51	10.4338
1078.89	4.39893
1082.26	1.7334
1085.64	8.81567
1089.01	5.25732
1092.39	0.462891
1095.76	7.02124
1099.14	30.1497
1102.51	24.4709
1105.88	22.0847
1109.26	11.6082
1112.63	1.79492
1116.01	6.89038
1119.38	19.1472
1122.76	19.0855
1126.13	5.59717
1129.51	9.85986
1132.88	2.80151
1136.26	8.02393
1139.63	15.6977
1143.01	9.37378
1146.38	8.28418
1149.76	20.5872
1153.13	12.157
1156.51	6.94629
1159.88	12.291
1163.26	7.23096
1166.63	0.778076
1170.01	11.5161
1173.38	15.8706
1176.76	28.0144
1180.13	16.8577
1183.51	11.3357
1186.88	16.4744
1190.26	20.5142
1193.63	19.2791
1197.01	17.0081
1200.38	13.7649
1203.76	11.7075
1207.13	0.419922
1210.51	8.7583
1213.88	22.9871
1217.25	25.614
1220.63	21.356
1224	12.3892
1227.38	3.10498
1230.75	6.76685
1234.13	0.159424
1237.5	2.99463
1240.88	9.31079
1244.25	22.9077
1247.63	23.9812
1251	22.5408
1254.38	17.8875
1257.75	18.3462
1261.13	17.2368
1264.5	8.44751
1267.88	6.29761
1271.25	7.28467
1274.63	0.65332
1278	2.16772
1281.38	11.9136
1284.75	7.50024
1288.12	0.852783
1291.5	0.140381
1294.88	6.59106
1298.25	16.3674
