Measurement: Raman, 780 nm, unoriented, Raman Data Processed
Mineral: Crandallite
Rruff sample: R140429
Ideal chemistry: CaAl_3_(PO_4_)(PO_3_OH)(OH)_6_
Locality: Savannah Pit, Tyrone mine, Grant County, New Mexico, USA
Source: Ron Gibbs
Description: Colorless, hexagonal platy crystals
Raman shift (cm-1)	intensity
166.167	0
169.06	1.56598
171.952	4.75385
174.845	10.6876
177.738	20.7703
180.631	29.5835
183.523	37.5241
186.416	39.6329
189.309	28.8154
192.201	20.3133
195.094	13.616
197.987	9.13214
200.88	8.10028
203.772	6.46765
206.665	1.49286
209.558	1.29492
212.45	0.161072
215.343	0.193054
218.236	0.962769
221.128	0.105591
224.021	0.255859
226.914	3.44687
229.806	5.26346
232.699	7.28458
235.592	12.9716
238.485	12.8805
241.377	17.4653
244.27	24.6242
247.163	32.3652
250.055	37.0445
252.948	41.9229
255.841	52.9782
258.733	61.3546
261.626	69.4893
264.519	67.8756
267.412	57.6934
270.304	47.0999
273.197	35.5379
276.09	29.1558
278.982	21.3836
281.875	15.3607
284.768	11.5514
287.661	10.2243
290.553	4.59271
293.446	1.25381
296.339	0.676514
299.231	0.020721
302.124	0.454865
305.017	0.621216
307.909	0.226074
310.802	2.29382
313.695	2.42947
316.587	1.57486
319.48	0.234009
322.373	4.85663
325.266	3.22723
328.158	2.96713
331.051	4.76404
333.944	9.92368
336.837	5.81818
339.729	3.18701
342.622	7.46033
345.515	8.88138
348.407	8.51074
351.3	8.90009
354.193	9.69983
357.085	11.2196
359.978	8.42923
362.871	8.02319
365.764	9.05853
368.656	8.05212
371.549	5.1489
374.442	4.9715
377.334	4.25247
380.227	4.18234
383.12	2.12079
386.012	0.78772
388.905	2.15964
391.798	5.74841
394.69	0.403839
397.583	2.7338
400.476	1.73923
403.369	1.82437
406.261	1.36917
409.154	0.480255
412.047	2.53482
414.939	2.37985
417.832	4.2966
420.725	1.29913
423.618	1.06024
426.51	0.995758
429.403	3.07983
432.296	1.70074
435.188	1.59112
438.081	2.39343
440.974	5.1994
443.866	6.1254
446.759	7.84653
449.652	12.2043
452.545	12.9252
455.437	17.5069
458.33	23.3108
461.223	29.9694
464.115	27.9784
467.008	20.5779
469.901	17.3131
472.793	16.1061
475.686	9.33698
478.579	5.03979
481.471	4.59558
484.364	1.63428
487.257	2.37738
490.15	0.498505
493.042	0.803741
495.935	0.40033
498.828	0.096527
501.72	0.308777
504.613	0.91275
507.506	0.025421
510.399	6.23822
513.291	2.98944
516.184	3.19943
519.077	8.29016
521.969	6.99399
524.862	6.05505
527.755	4.78195
530.647	1.68875
533.54	0.912231
536.433	0.821869
539.326	1.32059
542.218	0.879395
545.111	1.15994
548.004	2.36078
550.896	4.67676
553.789	5.43851
556.682	5.47971
559.574	7.31985
562.467	4.70602
565.36	3.28796
568.253	6.18893
571.145	4.38178
574.038	4.55173
576.931	6.78848
579.823	8.20373
582.716	12.5864
585.609	9.96008
588.501	11.1112
591.394	15.7535
594.287	24.8805
597.18	31.1531
600.072	44.2833
602.965	49.7852
605.858	49.1114
608.75	47.1223
611.643	41.4233
614.536	30.7959
617.428	23.1737
620.321	17.8481
623.214	10.7404
626.107	11.2811
628.999	7.39627
631.892	9.67932
634.785	6.39676
637.677	5.69687
640.57	4.77429
643.463	4.21463
646.356	5.59006
649.248	2.32547
652.141	2.02063
655.034	2.14725
657.926	4.22522
660.819	3.55337
663.712	0.857056
666.604	1.04431
669.497	0.128998
672.39	0.042725
675.283	1.85815
678.175	0.916138
681.068	2.76617
683.961	4.96973
686.853	3.39334
689.746	2.56128
692.639	0.475281
695.531	2.44373
698.424	2.31277
701.317	4.3486
704.21	4.26743
707.102	4.09879
709.995	3.63278
712.888	1.34464
715.78	3.18356
718.673	2.81598
721.566	3.51083
724.458	2.62076
727.351	4.00821
730.244	2.95309
733.136	1.70566
736.029	4.19095
738.922	3.75424
741.815	2.96726
744.707	1.31103
747.6	3.12994
750.493	0.065613
753.385	0.932251
756.278	1.32498
759.171	1.3154
762.063	0.58667
764.956	3.03952
767.849	1.70535
770.742	2.29974
773.634	1.09323
776.527	0.885651
779.42	0.791901
782.312	0.045349
785.205	0.317871
788.098	4.89645
790.99	1.77035
793.883	3.18292
796.776	4.83289
799.669	2.34906
802.561	3.65073
805.454	2.41562
808.347	3.08789
811.239	3.38324
814.132	3.38977
817.025	5.4661
819.918	4.99029
822.81	4.341
825.703	7.28174
828.596	1.86349
831.488	1.3378
834.381	2.72598
837.274	3.73819
840.166	4.9722
843.059	4.05606
845.952	2.52512
848.845	2.81787
851.737	2.94525
854.63	2.26794
857.523	1.33948
860.415	3.88623
863.308	2.85465
866.201	2.78384
869.093	1.08231
871.986	2.55405
874.879	2.26801
877.771	0.296814
880.664	2.48361
883.557	4.45871
886.45	3.12765
889.342	4.58304
892.235	5.4079
895.128	7.34439
898.02	12.0799
900.913	8.39374
903.806	11.2689
906.698	12.8572
909.591	9.87769
912.484	7.89417
915.377	12.3366
918.269	6.56339
921.162	4.85907
924.055	6.02032
926.947	4.67715
929.84	4.47278
932.733	2.98654
935.625	2.89947
938.518	0.396454
941.411	2.89822
944.304	1.44168
947.196	0.334656
950.089	0.349518
952.982	1.78104
955.875	1.44943
958.767	1.39685
961.66	2.13211
964.553	6.71341
967.445	10.739
970.338	10.995
973.231	13.8979
976.123	24.849
979.016	35.1861
981.909	39.8924
984.802	40.5041
987.694	44.4266
990.587	44.016
993.48	39.6462
996.372	33.9676
999.265	28.7914
1002.16	21.4979
1005.05	16.4508
1007.94	14.8646
1010.84	16.2791
1013.73	20.4147
1016.62	21.1267
1019.51	25.2724
1022.41	35.1937
1025.3	38.3011
1028.19	40.6482
1031.09	35.816
1033.98	35.4504
1036.87	30.6315
1039.76	26.3618
1042.66	24.6986
1045.55	19.3867
1048.44	13.4993
1051.33	13.265
1054.23	11.3318
1057.12	9.8624
1060.01	6.91113
1062.9	4.64334
1065.8	2.57031
1068.69	4.81174
1071.58	1.41064
1074.47	2.48758
1077.37	0.560272
1080.26	1.62341
1083.15	1.0011
1086.05	3.33997
1088.94	3.15472
1091.83	6.12421
1094.72	0.39267
1097.62	4.81464
1100.51	5.58282
1103.4	2.56268
1106.3	8.2041
1109.19	3.96759
1112.08	0.340515
1114.97	3.81213
1117.87	2.62643
1120.76	4.4628
1123.65	2.73938
1126.54	0.173096
1129.44	0.242462
1132.33	0.223938
1135.22	3.13144
1138.12	4.0748
1141.01	1.20987
1143.9	5.08179
1146.79	0.499359
1149.68	2.74161
1152.58	3.46372
1155.47	1.2131
1158.36	2.85275
1161.26	1.8139
1164.15	1.47974
1167.04	4.33276
1169.93	1.76688
1172.83	2.71317
1175.72	1.58472
1178.61	1.34189
1181.51	0.267609
1184.4	2.02454
1187.29	2.63153
1190.18	3.75397
1193.08	4.98053
1195.97	1.36023
1198.86	0.27951
1201.75	3.94745
1204.65	2.28659
1207.54	3.1221
1210.43	2.05377
1213.33	2.05228
1216.22	3.04865
1219.11	3.34775
1222	6.61868
1224.9	4.98675
1227.79	0.861267
1230.68	0.021637
1233.57	1.69727
1236.47	1.37213
1239.36	4.23956
1242.25	2.99097
1245.14	2.40997
1248.04	0.269501
1250.93	0.287292
1253.82	0.617798
1256.71	4.19537
1259.61	2.67676
1262.5	5.36783
1265.39	5.31699
1268.29	0.208527
1271.18	1.68189
1274.07	0.257935
1276.96	2.57394
1279.86	2.0929
