Measurement: Raman, 532 nm, unoriented, Raman Data Processed
Mineral: Danielsite
Rruff sample: R070419
Ideal chemistry: (Cu,Ag)_14_HgS_8_
Locality: Coppin Pool, Western Australia, Australia
Source: Michael Scott
Description: Gray metallic microblebs associated with cerussite and quartz, author's specimen
Raman shift (cm-1)	intensity
165.351	0
168.243	6.18915
171.136	7.11322
174.029	29.6804
176.921	44.2005
179.814	8.63141
182.707	32.2588
185.6	47.4269
188.492	37.24
191.385	22.0146
194.278	34.2518
197.17	33.1805
200.063	16.7338
202.956	1.39417
205.848	21.6097
208.741	24.353
211.634	33.2555
214.526	23.9974
217.419	37.2629
220.312	17.2463
223.205	11.7541
226.097	28.6623
228.99	20.6656
231.883	43.1101
234.775	7.04498
237.668	4.88678
240.561	12.8491
243.453	16.4094
246.346	8.88599
249.239	38.6468
252.132	38.7231
255.024	23.5048
257.917	45.9856
260.81	14.1823
263.702	22.102
266.595	4.4856
269.488	12.3405
272.38	67.2981
275.273	52.2803
278.166	53.6265
281.059	73.0947
283.951	59.2474
286.844	84.0883
289.737	87.4351
292.629	83.3185
295.522	93.1022
298.415	69.4175
301.308	59.694
304.2	51.9297
307.093	67.9186
309.986	65.0809
312.878	59.7359
315.771	33.1144
318.664	22.97
321.556	17.1942
324.449	73.5242
327.342	66.1958
330.235	31.0488
333.127	47.4621
336.02	3.51184
338.913	50.4944
341.805	14.5369
344.698	46.1986
347.591	38.1905
350.483	13.0054
353.376	63.3361
356.269	15.867
359.162	22.6566
362.054	61.2219
364.947	6.17773
367.84	0.364319
370.732	1.80322
373.625	34.4728
376.518	32.2895
379.411	9.47839
382.303	45.1524
385.196	32.5561
388.089	8.88226
390.981	16.1125
393.874	8.70178
396.767	22.1556
399.659	18.8648
402.552	14.3911
405.445	47.7858
408.337	35.3063
411.23	7.19482
414.123	70.1112
417.016	56.8452
419.908	46.6478
422.801	22.5454
425.694	23.6559
428.586	40.2866
431.479	48.5129
434.372	8.03345
437.264	29.5338
440.157	34.2311
443.05	26.1219
445.943	18.3578
448.835	17.1973
451.728	20.4182
454.621	68.5894
457.513	42.546
460.406	43.729
463.299	37.2861
466.192	36.3051
469.084	84.1825
471.977	69.8583
474.87	53.7878
477.762	42.1742
480.655	70.6713
483.548	93.3629
486.44	77.2666
489.333	71.5046
492.226	91.3234
495.118	56.6227
498.011	60.9554
500.904	83.8175
503.797	62.9665
506.689	72.406
509.582	43.7781
512.475	17.2289
515.367	51.5593
518.26	38.7706
521.153	0.850586
524.045	37.1007
526.938	3.15674
529.831	22.011
532.724	7.81165
535.616	17.2268
538.509	4.83508
541.402	1.95947
544.294	2.93701
547.187	11.7478
550.08	0.377808
552.972	19.855
555.865	44.7264
558.758	12.3856
561.651	41.4587
564.543	46.8665
567.436	54.1052
570.329	65.8004
573.221	73.0625
576.114	63.8112
579.007	103.165
581.899	81.5854
584.792	125.105
587.685	132.221
590.578	156.633
593.47	177.585
596.363	167.036
599.256	199.195
602.149	160.129
605.041	183.818
607.934	154.236
610.827	169.679
613.719	172.258
616.612	173.179
619.505	194.722
622.397	239.156
625.29	259.349
628.183	226.575
631.076	259.266
633.968	258.359
636.861	239.227
639.754	210.79
642.646	206.69
645.539	210.476
648.432	222.351
651.324	254.897
654.217	231.192
657.11	305.204
660.003	305.711
662.895	360.571
665.788	365.14
668.681	340.787
671.573	355.192
674.466	362.287
677.359	304.924
680.251	268.553
683.144	267.772
686.037	227.421
688.929	198.422
691.822	150.088
694.715	132.036
697.608	87.9856
700.5	81.2511
703.393	42.5946
706.286	50.2681
709.178	42.0435
712.071	20.6212
714.964	2.45264
717.856	3.53247
720.749	11.3644
723.642	14.0995
726.535	0.849609
729.427	11.7582
732.32	2.66467
735.213	15.2803
738.105	19.9628
740.998	28.7616
743.891	15.5955
746.784	17.465
749.676	15.8097
752.569	15.073
755.462	53.4399
758.354	48.7137
761.247	23.6111
764.14	38.8807
767.033	12.6825
769.925	13.1953
772.818	66.5321
775.711	65.8453
778.603	63.6586
781.496	58.814
784.389	56.2284
787.281	51.7306
790.174	41.5206
793.067	28.213
795.96	69.7991
798.852	72.3787
801.745	96.3607
804.638	41.4567
807.53	57.1309
810.423	74.33
813.316	43.6242
816.208	73.3452
819.101	32.9835
821.994	72.1455
824.886	55.7074
827.779	57.6036
830.672	56.4066
833.565	40.4841
836.457	70.4857
839.35	14.0707
842.243	1.5553
845.135	36.8103
848.028	30.3799
850.921	16.613
853.813	34.5435
856.706	12.7598
859.599	32.5339
862.492	36.2347
865.384	21.1611
868.277	24.9625
871.17	31.424
874.062	29.0372
876.955	4.09509
879.848	24.5171
882.74	23.6163
885.633	11.9454
888.526	30.2992
891.419	0.785889
894.311	42.2904
897.204	4.37463
900.097	52.5629
902.989	28.0409
905.882	20.6362
908.775	13.9055
911.668	2.37317
914.56	20.1572
917.453	17.6387
920.346	40.6177
923.238	17.6351
926.131	37.1698
929.024	5.34412
931.916	90.4789
934.809	40.4902
937.702	27.8123
940.595	0.783447
943.487	10.8165
946.38	13.9249
949.273	53.2252
952.165	66.9539
955.058	29.1173
957.951	61.0696
960.843	28.7342
963.736	7.53577
966.629	38.9662
969.521	51.3124
972.414	59.283
975.307	29.9915
978.2	37.6531
981.092	40.3711
983.985	30.5087
986.878	6.10657
989.77	0.849854
992.663	37.9056
995.556	0.529419
998.448	30.8655
1001.34	48.3813
1004.23	7.56494
1007.13	48.9917
1010.02	37.3868
1012.91	26.575
1015.8	38.9736
1018.7	66.61
1021.59	13.2733
1024.48	55.2723
1027.38	30.0256
1030.27	51.3994
1033.16	6.52332
1036.05	21.7707
1038.95	53.1125
1041.84	18.4525
1044.73	31.7209
1047.62	63.801
1050.52	74.4285
1053.41	3.76025
1056.3	16.5499
1059.19	18.8193
1062.09	10.4331
1064.98	42.1844
1067.87	38.2432
1070.77	23.7105
1073.66	53.105
1076.55	37.615
1079.44	45.8258
1082.34	53.3075
1085.23	3.86072
1088.12	58.6882
1091.02	76.7026
1093.91	46.186
1096.8	3.84912
1099.69	29.5947
1102.59	56.6205
1105.48	27.5861
1108.37	19.3032
1111.26	48.323
1114.16	47.3932
1117.05	46.2009
1119.94	36.3071
1122.84	15.8705
1125.73	38.2056
1128.62	60.2692
1131.51	32.1014
1134.41	0.511353
1137.3	52.4406
1140.19	30.525
1143.08	21.5682
1145.98	56.1851
1148.87	10.1401
1151.76	64.3168
1154.65	20.0252
1157.55	47.0818
1160.44	61.5211
1163.33	39.394
1166.22	50.9766
1169.12	49.1907
1172.01	55.1548
1174.9	41.8131
1177.8	60.0117
1180.69	23.4408
1183.58	38.5581
1186.47	8.02893
1189.37	33.7402
1192.26	0.372803
1195.15	30.4031
1198.05	7.81738
1200.94	0.531372
1203.83	38.4845
1206.72	23.6354
1209.62	7.16711
1212.51	56.6505
1215.4	36.6768
1218.29	21.2247
1221.19	32.5089
1224.08	9.45483
1226.97	27.7625
1229.87	35.3064
1232.76	23.5769
1235.65	31.1246
1238.54	54.6823
1241.44	17.6675
1244.33	18.0635
1247.22	49.0398
1250.11	13.0094
1253.01	37.474
1255.9	40.2562
1258.79	25.9095
1261.68	66.6938
1264.58	35.1836
1267.47	42.6437
1270.36	34.2714
1273.26	44.5278
1276.15	62.5702
1279.04	43.6888
1281.93	39.265
1284.83	35.634
1287.72	13.9257
1290.61	27.1036
1293.5	11.1132
1296.4	41.0723
1299.29	0
