Measurement: Raman, 780 nm, unoriented, Raman Data Processed
Mineral: Dondoellite
Rruff sample: R140175
Ideal chemistry: Ca_2_Fe^2+^(PO_4_)_2_2H_2_O
Locality: Messel mine, Messel, Darmstadt, Hesse, Germany
Source: Rock Currier
Description: Pale greenish white hemispherical or sheaflike aggregates of lamellar crystals, associated with anapaite (R141081). The cell parameters do not match messelite, but may be a related phase, perhaps a polytype. Needs more work.
Measured chemistry: Ca_1.98_(Fe_0.88_Mg_0.09_)(P_1.01_O_4_)_2_Â·2H_2_O ; trace amount of Mn
Raman shift (cm-1)	intensity
95.2959	0
98.6707	22.2564
102.046	65.8115
105.42	25.5376
108.795	6.91455
112.17	39.2183
115.545	35.0478
118.92	53.7266
122.294	59.6143
125.669	69.4917
129.044	37.584
132.419	13.6587
135.794	31.3574
139.168	23.6514
142.543	0.732422
145.918	6.14941
149.293	8.27393
152.668	6.36182
156.043	36.6309
159.417	95.2202
162.792	153.861
166.167	97.8662
169.542	82.7319
172.917	81.2402
176.292	129.769
179.666	212.382
183.041	233.315
186.416	177.878
189.791	131.977
193.166	97.3804
196.54	81.4751
199.915	84.1094
203.29	124.334
206.665	129.34
210.04	106.543
213.415	88.0933
216.789	66.793
220.164	68.9175
223.539	63.6211
226.914	53.9468
230.289	40.7085
233.663	59.6865
237.038	17.7427
240.413	20.398
243.788	35.7363
247.163	39.8359
250.537	27.062
253.912	5.19775
257.287	22.7026
260.662	27.3862
264.037	36.3599
267.412	31.1172
270.786	46.9688
274.161	50.0415
277.536	47.3857
280.911	59.2124
284.286	95.2647
287.661	128.71
291.035	85.5752
294.41	47.0625
297.785	5.2334
301.16	0.825195
304.535	17.3008
307.909	26.561
311.284	41.8145
314.659	46.3442
318.034	28.6045
321.409	40.1919
324.784	43.581
328.158	13.7231
331.533	3.85547
334.908	23.1367
338.283	15.0342
341.658	1.70264
345.032	28.7954
348.407	9.7456
351.782	8.07275
355.157	10.1802
358.532	13.2554
361.906	3.48193
365.281	17.5523
368.656	24.042
372.031	5.37598
375.406	17.2734
378.781	18.98
382.155	26.5288
385.53	38.502
388.905	54.189
392.28	69.9487
395.655	70.4946
399.029	81.6919
402.404	132.589
405.779	157
409.154	216.711
412.529	319.736
415.904	355.892
419.278	321.496
422.653	245.317
426.028	185.086
429.403	161.552
432.778	140.783
436.152	116.198
439.527	114.144
442.902	102.939
446.277	91.3442
449.652	88.0679
453.027	72.1602
456.401	66.0322
459.776	64.4829
463.151	37.2593
466.526	42.4717
469.901	33.5181
473.276	23.0493
476.65	30.6792
480.025	22.0537
483.4	9.30029
486.775	6.99805
490.15	8.25098
493.524	30.2065
496.899	7.31689
500.274	27.3477
503.649	7.23926
507.024	9.43701
510.399	10.834
513.773	5.47266
517.148	5.3125
520.523	9.58252
523.898	8.61572
527.273	26.9048
530.647	13.9214
534.022	5.93408
537.397	14.6606
540.772	1.61279
544.147	24.6255
547.521	43.3677
550.896	72.8823
554.271	46.7964
557.646	58.2139
561.021	20.1694
564.396	12.2041
567.77	1.39844
571.145	12.6646
574.52	9.12598
577.895	31.1597
581.27	61.2832
584.644	61.2207
588.019	60.6216
591.394	91.811
594.769	170.036
598.144	257.41
601.519	215.392
604.893	95.5186
608.268	60.4404
611.643	29.8672
615.018	9.20117
618.393	8.67676
621.768	18.5586
625.142	21.6401
628.517	10.894
631.892	23.355
635.267	3.04443
638.642	31.1548
642.016	11.1196
645.391	0.236328
648.766	1.18799
652.141	3.30078
655.516	11.6533
658.89	19.6714
662.265	12.8911
665.64	4.14014
669.015	3.79736
672.39	6.29102
675.765	3.20752
679.139	17.9287
682.514	12.2817
685.889	25.1924
689.264	18.2183
692.639	3.1919
696.014	8.3081
699.388	1.14941
702.763	7.65967
706.138	24.6431
709.513	27.7676
712.888	7.08057
716.262	10.6729
719.637	32.4731
723.012	34.166
726.387	19.4517
729.762	30.314
733.136	21.9819
736.511	17.4976
739.886	12.8398
743.261	25.8145
746.636	11.9224
750.011	21.6939
753.385	7.40576
756.76	13.0918
760.135	14.9531
763.51	25.4761
766.885	12.8364
770.26	27.8125
773.634	28.7017
777.009	26.644
780.384	8.54834
783.759	11.7993
787.134	25.4424
790.508	38.938
793.883	12.1372
797.258	28.5542
800.633	26.269
804.008	29.0693
807.383	23.7798
810.757	19.063
814.132	19.3784
817.507	26.751
820.882	35.3867
824.257	39.5254
827.631	0.523438
831.006	5.34961
834.381	20.7046
837.756	30.8452
841.131	20.2329
844.505	22.0825
847.88	16.7925
851.255	21.6401
854.63	12.831
858.005	12.3648
861.38	21.7793
864.754	38.0117
868.129	12.6396
871.504	24.7329
874.879	22.8164
878.254	8.87354
881.629	30.8355
885.003	18.4902
888.378	6.26074
891.753	3.69727
895.128	3.33643
898.503	7.17236
901.877	2.49414
905.252	15.2456
908.627	21.3042
912.002	31.0591
915.377	86.2344
918.751	97.6421
922.126	166.078
925.501	310.255
928.876	395.992
932.251	324.795
935.625	280.561
939	348.058
942.375	572.271
945.75	513.581
949.125	287.695
952.5	194.438
955.875	166.894
959.249	137.095
962.624	108.465
965.999	92.4578
969.374	41.9663
972.749	12.332
976.123	0.787354
979.498	40.3882
982.873	32.7361
986.248	9.4812
989.623	4.50366
992.997	15.8745
996.372	5.00122
999.747	7.38232
1003.12	23.8689
1006.5	9.30835
1009.87	33.4624
1013.25	60.6392
1016.62	48.1523
1020	40.5273
1023.37	23.7737
1026.75	6.2168
1030.12	13.8242
1033.49	38.3227
1036.87	21.5225
1040.24	33.5757
1043.62	8.77685
1046.99	2.63916
1050.37	9.09082
1053.74	18.4316
1057.12	21.9421
1060.49	17.467
1063.87	24.8023
1067.24	25.4883
1070.62	8.29517
1073.99	27.4917
1077.37	29.6494
1080.74	55.6543
1084.12	63.042
1087.49	72.8621
1090.87	146.887
1094.24	166.535
1097.62	213.49
1100.99	146.772
1104.37	65.1992
1107.74	69.4641
1111.12	18.7048
1114.49	5.83716
1117.87	4.74072
1121.24	17.8977
1124.62	5.87158
1127.99	7.29907
1131.37	3.97266
1134.74	21.2568
1138.12	37.9714
1141.49	17.4275
1144.86	35.0996
1148.24	15.7593
1151.61	29.7105
1154.99	23.2998
1158.36	29.0776
1161.74	22.8174
1165.11	13.3281
1168.49	30.0588
1171.86	30.4773
1175.24	36.9983
1178.61	33.5344
1181.99	21.7136
1185.36	30.4902
1188.74	37.5818
1192.11	16.2522
1195.49	34.581
1198.86	10.8159
1202.24	39.6855
1205.61	33.4971
1208.99	28.6113
1212.36	26.2075
1215.73	46.4734
1219.11	43.0151
1222.48	63.9717
1225.86	17.5115
1229.23	11.8716
1232.61	5.87451
1235.98	32.1082
1239.36	30.137
1242.73	18.833
1246.11	14.4443
1249.48	6.58154
1252.86	8.25366
1256.23	33.3801
1259.61	34.1238
1262.98	44.4875
1266.36	31.7998
1269.73	18.7686
1273.11	19.5041
1276.48	7.8418
1279.86	29.6724
