Measurement: Raman, 780 nm, unoriented, Raman Data Processed
Mineral: Edwindavisite
Rruff sample: R230005
Ideal chemistry: Cu^2+^((C_2_)^6+^O_4_)(N^3-^H_3_)
Locality: 125' Level, Rowley mine, Maricopa County, Arizona, USA
Source: Joe Marty
Description: Radiating clusters of bladed or prismatic grass-green crystals, associated with blue ammineite. Type sample
Raman shift (cm-1)	intensity
89.5596	0
92.9344	17.5141
96.3092	4.40733
99.684	0.198914
103.059	1.05895
106.434	12.1547
109.808	8.26187
113.183	5.17467
116.558	6.83343
119.933	4.81809
123.308	4.59334
126.683	2.73554
130.057	1.79241
133.432	1.2926
136.807	1.71053
140.182	1.97059
143.557	0.028954
146.931	1.83911
150.306	11.1895
153.681	16.8882
157.056	22.6896
160.431	24.4462
163.805	26.3323
167.18	27.5357
170.555	27.4986
173.93	20.6098
177.305	17.7516
180.68	18.8723
184.054	12.3043
187.429	14.3139
190.804	6.91041
194.179	7.68986
197.554	5.00584
200.929	5.26016
204.303	5.13757
207.678	5.08635
211.053	5.97596
214.428	4.55913
217.803	4.71011
221.177	6.83531
224.552	6.22045
227.927	9.94743
231.302	10.7933
234.677	12.6485
238.051	16.7059
241.426	13.6235
244.801	11.4471
248.176	12.7551
251.551	8.64257
254.925	6.8358
258.3	3.47921
261.675	2.83304
265.05	1.68536
268.425	1.07191
271.8	0.804314
275.174	0.742786
278.549	0.257896
281.924	0.428249
285.299	0.203911
288.674	0.330887
292.048	0.281017
295.423	1.17432
298.798	1.68464
302.173	2.26336
305.548	3.14616
308.923	1.24233
312.297	2.48723
315.672	2.72037
319.047	3.0859
322.422	3.58142
325.797	4.0424
329.171	3.15661
332.546	2.49569
335.921	1.28368
339.296	3.15908
342.671	1.6612
346.046	3.49896
349.42	3.08001
352.795	0.965145
356.17	1.65548
359.545	2.81348
362.92	1.86335
366.294	1.83061
369.669	2.80061
373.044	1.15636
376.419	2.72982
379.794	1.21995
383.168	2.49724
386.543	1.09919
389.918	2.0331
393.293	1.28341
396.668	2.02088
400.043	3.10151
403.417	0.718624
406.792	1.74044
410.167	2.86821
413.542	1.00076
416.917	2.14648
420.291	1.41791
423.666	0.189594
427.041	1.0696
430.416	1.88115
433.791	0.392651
437.166	0.17329
440.54	0.73336
443.915	2.27119
447.29	2.77933
450.665	1.84115
454.04	1.99906
457.414	4.31847
460.789	2.6782
464.164	4.27143
467.539	3.84243
470.914	2.07215
474.288	2.04886
477.663	2.94952
481.038	4.00019
484.413	6.29389
487.788	7.04965
491.163	7.5324
494.537	11.0141
497.912	13.6006
501.287	22.4457
504.662	31.3307
508.037	52.2622
511.411	72.6397
514.786	67.7337
518.161	42.9834
521.536	24.7534
524.911	15.2359
528.285	7.83345
531.66	5.68198
535.035	4.81867
538.41	4.94535
541.785	6.32483
545.16	5.52193
548.534	4.55709
551.909	2.46343
555.284	1.10429
558.659	1.3432
562.034	1.00923
565.409	2.17405
568.783	0.800678
572.158	1.2391
575.533	2.23394
578.908	0.75127
582.283	2.46973
585.657	2.45863
589.032	1.45781
592.407	1.41554
595.782	0.633587
599.157	3.01903
602.532	0.783932
605.906	2.45299
609.281	2.3999
612.656	3.89617
616.031	1.30817
619.406	2.72905
622.78	2.49786
626.155	0.262512
629.53	2.42053
632.905	0.325077
636.28	1.48308
639.654	1.07174
643.029	2.55789
646.404	1.15262
649.779	0.060659
653.154	2.80635
656.529	2.67471
659.903	1.88861
663.278	0.919445
666.653	1.68497
670.028	0.398813
673.403	1.72787
676.777	1.54493
680.152	1.71444
683.527	2.11938
686.902	1.73006
690.277	2.76398
693.652	0.423048
697.026	0.163517
700.401	1.7207
703.776	1.249
707.151	1.79813
710.526	1.87736
713.9	2.25717
717.275	3.23372
720.65	2.2902
724.025	0.624466
727.4	2.47454
730.774	1.26658
734.149	1.1519
737.524	2.20466
740.899	3.96862
744.274	2.858
747.649	2.5098
751.023	1.5452
754.398	0.819164
757.773	2.1487
761.148	1.40868
764.523	2.92383
767.898	2.12366
771.272	1.6628
774.647	0.623363
778.022	0.917803
781.397	3.01797
784.771	1.37207
788.146	2.45195
791.521	2.58502
794.896	1.62306
798.271	4.15965
801.646	1.96462
805.02	2.53147
808.395	1.72625
811.77	0.443178
815.145	0.946232
818.52	1.38691
821.894	0.549715
825.269	2.66
828.644	0.131741
832.019	0.831465
835.394	2.94686
838.769	0.545496
842.143	0.204376
845.518	3.77817
848.893	3.23221
852.268	3.52231
855.643	2.3983
859.018	2.65422
862.392	0.383898
865.767	0.965485
869.142	1.35896
872.517	0.642504
875.891	1.50176
879.266	1.41048
882.641	2.21735
886.016	2.15248
889.391	3.5297
892.766	4.09538
896.14	2.5829
899.515	6.68959
902.89	8.9813
906.265	10.9953
909.64	3.40446
913.014	1.8384
916.389	4.44384
919.764	2.60364
923.139	2.70967
926.514	1.76104
929.889	0.385187
933.263	0.014017
936.638	3.2929
940.013	1.6328
943.388	1.28074
946.763	1.01772
950.138	1.00539
953.512	1.97654
956.887	1.39889
960.262	1.20793
963.637	2.47152
967.011	0.575378
970.386	2.36676
973.761	0.163513
977.136	2.85692
980.511	2.23145
983.886	3.45162
987.26	1.39311
990.635	3.86458
994.01	0.034124
997.385	3.09312
1000.76	2.48578
1004.13	1.79173
1007.51	4.49055
1010.88	4.00307
1014.26	0.273499
1017.63	3.46256
1021.01	1.1181
1024.38	2.71788
1027.76	3.11813
1031.13	1.84631
1034.51	3.56612
1037.88	0.652994
1041.26	1.80468
1044.63	1.86577
1048.01	1.88669
1051.38	1.34245
1054.76	1.76471
1058.13	1.74854
1061.51	1.76933
1064.88	1.19386
1068.26	3.51923
1071.63	2.18303
1075.01	2.36644
1078.38	3.61354
1081.76	2.01525
1085.13	1.04631
1088.51	2.17142
1091.88	3.18528
1095.26	3.33847
1098.63	1.59124
1102	3.38292
1105.38	2.51197
1108.75	0.539396
1112.13	0.933439
1115.5	1.72582
1118.88	1.21825
1122.25	2.15935
1125.63	1.63305
1129	4.53682
1132.38	0.894279
1135.75	1.83959
1139.13	1.92268
1142.5	2.13741
1145.88	2.37216
1149.25	1.26161
1152.63	2.84882
1156	4.00039
1159.38	0.230162
1162.75	2.05588
1166.13	0.88225
1169.5	3.71787
1172.88	1.27006
1176.25	1.79639
1179.62	0.580212
1183	1.64863
1186.38	1.43751
1189.75	1.84881
1193.12	2.26792
1196.5	1.80888
1199.87	1.26495
1203.25	3.86496
1206.62	1.35728
1210	2.82087
1213.37	0.209831
1216.75	1.40575
1220.12	1.14737
1223.5	1.82906
1226.87	3.10467
1230.25	2.3508
1233.62	2.86363
1237	2.08997
1240.37	2.5185
1243.75	1.41074
1247.12	3.28127
1250.5	1.27349
1253.87	1.81505
1257.25	0.806606
1260.62	4.45531
1263.99	2.68698
1267.37	2.54104
1270.74	1.73232
1274.12	2.75838
1277.49	0.58601
1280.87	1.70177
1284.24	0
