Measurement: Raman, 785 nm, unoriented, Raman Data Processed
Mineral: Ferroselite
Rruff sample: R070461
Ideal chemistry: FeSe_2_
Locality: Virgin No. 3 mine, Paradox Valley, Uravan District,  Montrose County, Colorado, USA
Source: Michael Scott
Description: Yellowish silver metallic prismatic crystals. Used in the Lavina et al (2018) study
Measured chemistry: Fe_1.00_Se_2.00_
Raman shift (cm-1)	intensity
155.63	0
158.522	73.9678
161.415	553.817
164.308	574.612
167.2	522.07
170.093	412.323
172.986	291.649
175.879	308.82
178.771	715.602
181.664	669.086
184.557	273.684
187.449	79.9219
190.342	37.4873
193.235	49.2256
196.127	35.4043
199.02	58.2715
201.913	31.6133
204.805	51.6299
207.698	50.127
210.591	51.0566
213.484	178.097
216.376	356.393
219.269	313.968
222.162	244.389
225.054	148.388
227.947	26.1929
230.84	19.5786
233.732	69.7759
236.625	92.1816
239.518	29.0459
242.411	147.744
245.303	87.8716
248.196	12.8496
251.089	95.0229
253.981	50.1929
256.874	105.196
259.767	95.8413
262.659	47.023
265.552	4.76465
268.445	39.2773
271.338	71.8662
274.23	63.168
277.123	69.0806
280.016	139.084
282.908	108.189
285.801	106.736
288.694	48.9849
291.587	56.0142
294.479	36.9346
297.372	60.0298
300.265	57.1211
303.157	81.8994
306.05	37.0581
308.943	83.5195
311.835	1.59375
314.728	17.5674
317.621	17.0078
320.514	65.0073
323.406	100.15
326.299	113.685
329.192	53.6011
332.084	38.4463
334.977	86.8731
337.87	16.1352
340.762	20.8218
343.655	68.1069
346.548	34.606
349.44	122.524
352.333	84.6846
355.226	38.8555
358.119	68.1943
361.011	63.7602
363.904	85.4502
366.797	60.6006
369.689	89.2368
372.582	40.773
375.475	55.749
378.368	31.0215
381.26	27.5576
384.153	53.773
387.046	23.1738
389.938	92.3687
392.831	77.2256
395.724	56.0205
398.616	88.874
401.509	54.3013
404.402	112.174
407.295	56.5791
410.187	46.8716
413.08	76.7822
415.973	102.666
418.865	44.4253
421.758	62.4673
424.651	0.29541
427.543	37.1084
430.436	80.5254
433.329	40.8994
436.221	15.3877
439.114	75.5293
442.007	53.4663
444.9	48.3579
447.792	58.5244
450.685	58.2759
453.578	30.2251
456.47	12.6919
459.363	64.2856
462.256	27.0371
465.149	68.8731
468.041	52.1108
470.934	54.1821
473.827	66.3813
476.719	84.186
479.612	90.6089
482.505	71.6938
485.397	69.4424
488.29	116.59
491.183	73.1426
494.075	84.2178
496.968	9.44482
499.861	60.8921
502.754	56.0269
505.646	85.0576
508.539	69.7939
511.432	21.9395
514.324	0.977539
517.217	18.9995
520.11	5.49365
523.003	26.7266
525.895	19.8872
528.788	43.0947
531.681	70.9956
534.573	46.9824
537.466	23.793
540.359	78.3325
543.251	11.7588
546.144	70.0518
549.037	20.6977
551.929	43.2139
554.822	51.6167
557.715	39.9448
560.608	74.0806
563.5	31.1787
566.393	85.7769
569.286	4.27393
572.178	13.0102
575.071	32.6548
577.964	61.8623
580.856	22.5635
583.749	45.9575
586.642	48.0015
589.535	48.2437
592.427	10.9639
595.32	60.5898
598.213	63.7573
601.105	95.5552
603.998	66.3828
606.891	43.8115
609.784	43.7217
612.676	53.5478
615.569	70.8979
618.462	55.6748
621.354	41.5059
624.247	29.6182
627.14	6.32519
630.032	41.7036
632.925	48.4228
635.818	7.65186
638.711	16.9365
641.603	3.66894
644.496	24.0059
647.389	15.9771
650.281	79.1411
653.174	53.8506
656.067	83.5396
658.959	1.69922
661.852	34.1558
664.745	67.5503
667.638	65.9912
670.53	34.9004
673.423	75.1797
676.316	4.73193
679.208	38.7095
682.101	4.50928
684.994	40.2231
687.886	9.82373
690.779	47.9609
693.672	29.6235
696.564	45.0571
699.457	45.061
702.35	14.7505
705.243	33.4067
708.135	78.3213
711.028	31.7105
713.921	30.1846
716.813	54.6362
719.706	41.7427
722.599	12.3149
725.491	4.18506
728.384	0.046875
731.277	73.0693
734.17	55.6621
737.062	93.7471
739.955	16.2602
742.848	86.5264
745.74	43.0713
748.633	51.2466
751.526	6.75684
754.418	10.1558
757.311	2.51074
760.204	36.6304
763.097	49.0161
765.989	14.2275
768.882	47.3335
771.775	53.7437
774.667	65.7656
777.56	54.2969
780.453	68.7026
783.346	6.42822
786.238	52.3975
789.131	32.4092
792.024	80.9194
794.916	95.4292
797.809	85.6807
800.702	27.9624
803.594	65.6367
806.487	34.3257
809.38	0.756836
812.273	88.2109
815.165	10.8779
818.058	95.5093
820.951	84.5742
823.843	29.5464
826.736	29.727
829.629	52.2427
832.521	39.3267
835.414	95.9473
838.307	51.0039
841.199	74.5229
844.092	21.3311
846.985	45.0073
849.878	79.5757
852.77	10.3359
855.663	19.0957
858.556	44.7349
861.448	46.73
864.341	12.8218
867.234	24.4243
870.126	22.9888
873.019	75.4136
875.912	30.5078
878.805	23.8877
881.697	108.942
884.59	72.3691
887.483	20.4248
890.375	24.3594
893.268	98.2842
896.161	71.103
899.053	4.24951
901.946	24.6489
904.839	84.2832
907.732	11.5127
910.624	11.1318
913.517	60.6025
916.41	19.6494
919.302	30.0244
922.195	26.9248
925.088	47.5132
927.981	25.4941
930.873	28.2559
933.766	49.583
936.659	36.9692
939.551	21.9805
942.444	9.83398
945.337	63.4888
948.229	48.8452
951.122	33.168
954.015	25.4531
956.908	23.0293
959.8	75.5947
962.693	43.8091
965.586	14.4253
968.478	38.9839
971.371	23.2549
974.264	40.1304
977.156	59.019
980.049	53.0068
982.942	30.4873
985.835	38.4082
988.727	53.1113
991.62	1.52295
994.513	35.2632
997.405	9.63818
1000.3	0.305176
1003.19	7.32422
1006.08	5.9165
1008.98	47.5063
1011.87	24.1943
1014.76	36.8374
1017.65	36.876
1020.55	47.0513
1023.44	30.6186
1026.33	95.3066
1029.22	35.7241
1032.12	23.8462
1035.01	60.23
1037.9	50.8467
1040.8	27.0757
1043.69	68.8125
1046.58	45.1255
1049.47	14.8374
1052.37	3.07373
1055.26	75.896
1058.15	8.75195
1061.05	48.4736
1063.94	86.124
1066.83	15.3818
1069.72	35.1582
1072.62	41.5952
1075.51	74.7847
1078.4	22.2739
1081.29	20.3052
1084.19	43.3174
1087.08	77.2861
1089.97	85.4214
1092.86	77.1216
1095.76	15.3789
1098.65	11.2925
1101.54	58.3296
1104.43	1.79736
1107.33	57.8066
1110.22	3.28516
1113.11	42.0562
1116.01	93.7022
1118.9	62.5776
1121.79	58.7427
1124.68	74.4214
1127.58	29.4751
1130.47	20.5278
1133.36	52.9263
1136.26	48.644
1139.15	35.0981
1142.04	11.6763
1144.93	55.5288
1147.83	59.4717
1150.72	53.9522
1153.61	3.65381
1156.5	36.1904
1159.4	65.9077
1162.29	31.7319
1165.18	60.2153
1168.08	22.3623
1170.97	59.5371
1173.86	68.1675
1176.75	27.5102
1179.64	80.1226
1182.54	80.9805
1185.43	7.82666
1188.32	83.5303
1191.22	51.376
1194.11	62.8252
1197	49.2075
1199.89	26.2769
1202.79	39.9473
1205.68	21.0962
1208.57	59.2676
1211.46	58.8135
1214.36	4.48975
1217.25	90.1333
1220.14	35.8071
1223.04	3.80469
1225.93	59.3755
1228.82	64.1924
1231.71	67.4536
1234.61	51.8193
1237.5	49.4653
1240.39	63.4888
1243.29	36.5376
1246.18	34.2402
1249.07	59.9697
1251.96	71.4155
1254.86	14.4126
1257.75	13.8047
1260.64	32.0073
1263.53	13.3848
1266.43	40.8555
1269.32	31.7534
