Measurement: Raman, 780 nm, unoriented, Raman Data Processed
Mineral: Ferriallanite-(La)
Rruff sample: R141069
Ideal chemistry: CaLa^3+^(Fe^3+^AlFe^2+^)(SiO_4_)(Si_2_O_7_)O(OH)
Locality: In den Dellen quarries, Niedermendig, Mendig, Laach lake volcanic complex, Eifel, Rhineland-Palatinate, Germany
Source: Ch. and H. Sch√§fer
Description: Black tabular crystals embedded in matrix, associated with sanidine, magnetite and cancrinite.
Raman shift (cm-1)	intensity
159.538	0
162.431	4.56002
165.324	4.42617
168.216	5.55611
171.109	6.40016
174.002	7.10836
176.894	7.17108
179.787	9.26674
182.68	10.2441
185.573	8.56583
188.465	8.16932
191.358	8.60726
194.251	10.9968
197.143	10.3833
200.036	10.5873
202.929	11.8558
205.821	8.21334
208.714	8.0145
211.607	8.58711
214.5	9.02957
217.392	9.93475
220.285	11.1026
223.178	12.5033
226.07	10.9339
228.963	10.592
231.856	11.4093
234.749	10.361
237.641	11.743
240.534	14.9252
243.427	14.0767
246.319	13.2296
249.212	12.2738
252.105	10.718
254.997	8.2788
257.89	6.5464
260.783	5.34635
263.675	7.21769
266.568	3.67019
269.461	2.63531
272.354	1.44544
275.246	1.5586
278.139	0.25516
281.032	0.558145
283.924	0.114406
286.817	0.419446
289.71	2.20788
292.602	2.44229
295.495	4.59763
298.388	4.55709
301.281	6.65121
304.173	6.4961
307.066	5.58024
309.959	6.34725
312.851	6.26247
315.744	7.14332
318.637	5.67747
321.529	7.10905
324.422	5.77488
327.315	6.24528
330.207	5.20021
333.1	4.1298
335.993	3.41492
338.886	3.25907
341.778	2.13776
344.671	1.27406
347.564	2.34271
350.456	0.966105
353.349	2.07697
356.242	1.51724
359.135	1.14764
362.027	0.865878
364.92	0.343564
367.813	0.558456
370.705	1.54699
373.598	0.31923
376.491	0.707045
379.383	0.535019
382.276	0.487953
385.169	0.430762
388.062	0.376378
390.954	1.31544
393.847	0.385903
396.74	1.86348
399.632	0.849396
402.525	1.24996
405.418	1.17005
408.31	1.61434
411.203	2.06348
414.096	3.38488
416.988	2.08488
419.881	3.15395
422.774	2.82726
425.667	2.53541
428.559	3.69298
431.452	4.99742
434.345	2.9945
437.237	1.9162
440.13	3.1916
443.023	3.75982
445.915	1.83633
448.808	3.00525
451.701	2.5374
454.594	1.99997
457.486	2.12367
460.379	2.74911
463.272	0.841813
466.164	3.32895
469.057	3.83682
471.95	3.55396
474.842	3.41608
477.735	2.54791
480.628	2.91198
483.521	2.15006
486.413	2.3851
489.306	2.68971
492.199	2.32937
495.091	1.4866
497.984	2.06815
500.877	3.10858
503.769	0.774592
506.662	1.45576
509.555	0.274503
512.447	0.688521
515.34	1.11946
518.233	0.5405
521.126	0.157703
524.018	0.635448
526.911	0.221873
529.804	0.192666
532.696	0.455648
535.589	0.924328
538.482	0.205197
541.375	1.31849
544.267	0.031371
547.16	0.626638
550.053	0.780997
552.945	0.616509
555.838	0.855064
558.731	0.654714
561.623	0.7155
564.516	0.364336
567.409	1.27841
570.302	2.20424
573.194	0.567875
576.087	1.32066
578.98	1.01567
581.872	1.70019
584.765	2.53434
587.658	0.215802
590.55	0.202089
593.443	0.081215
596.336	1.27969
599.229	1.94811
602.121	2.7255
605.014	1.33178
607.907	0.501312
610.799	0.908626
613.692	1.59746
616.585	0.949271
619.477	2.05652
622.37	3.04366
625.263	1.13253
628.155	3.03124
631.048	4.805
633.941	8.12577
636.833	8.52337
639.726	9.98724
642.619	11.5363
645.512	13.7277
648.404	16.834
651.297	20.095
654.19	21.627
657.082	22.502
659.975	26.1524
662.868	25.6029
665.76	25.5383
668.653	26.4331
671.546	25.6314
674.439	23.9428
677.331	22.376
680.224	21.4373
683.117	17.5331
686.009	15.8912
688.902	13.794
691.795	11.5693
694.688	9.39854
697.58	6.7896
700.473	6.46301
703.366	4.15864
706.258	2.50237
709.151	3.40102
712.044	1.57848
714.936	0.437641
717.829	1.38407
720.722	0.599027
723.614	0.650363
726.507	0.197897
729.4	0.01991
732.293	0.337291
735.185	1.09769
738.078	0.251383
740.971	0.269694
743.863	0.440412
746.756	0.113008
749.649	0.03169
752.541	0.435144
755.434	0.587966
758.327	0.231978
761.22	0.607672
764.112	0.017274
767.005	0.127437
769.898	0.959461
772.79	1.68114
775.683	0.647056
778.576	3.16568
781.468	3.00293
784.361	3.07161
787.254	1.91814
790.146	3.06688
793.039	4.3723
795.932	3.04793
798.825	5.12388
801.717	4.68365
804.61	4.85076
807.503	6.36466
810.395	5.97717
813.288	6.10274
816.181	5.04902
819.073	6.57217
821.966	7.36725
824.859	7.00394
827.752	8.46544
830.644	8.56477
833.537	8.3176
836.43	9.16663
839.322	8.75309
842.215	11.169
845.108	9.9267
848	10.2066
850.893	11.7888
853.786	11.2523
856.679	10.9396
859.571	10.4833
862.464	10.363
865.357	10.557
868.249	9.80013
871.142	10.1764
874.035	9.09959
876.927	9.26239
879.82	8.47876
882.713	7.181
885.606	6.35584
888.498	5.74859
891.391	5.00306
894.284	4.3711
897.176	2.58586
900.069	2.08059
902.962	1.52783
905.854	0.410493
908.747	1.36899
911.64	0.425057
914.533	0.014923
917.425	0.004135
920.318	0.013386
923.211	0.561007
926.103	0.707084
928.996	0.116651
931.889	0.335843
934.781	0.45107
937.674	0.123149
940.567	1.06963
943.46	0.06581
946.352	0.444225
949.245	0.055568
952.138	0.256099
955.03	0.737945
957.923	0.521483
960.816	1.28035
963.708	0.462785
966.601	1.50439
969.494	1.23537
972.386	1.94902
975.279	1.15614
978.172	0.882114
981.065	1.35857
983.957	2.16723
986.85	1.4082
989.743	1.7163
992.635	0.36817
995.528	2.27042
998.421	2.64241
1001.31	1.60627
1004.21	1.49244
1007.1	1.2921
1009.99	1.74883
1012.88	2.74193
1015.78	1.21433
1018.67	1.21731
1021.56	1.41459
1024.45	2.52907
1027.35	2.67109
1030.24	2.21441
1033.13	3.87645
1036.03	4.65627
1038.92	3.36597
1041.81	3.50475
1044.7	3.14773
1047.6	2.96095
1050.49	2.56586
1053.38	2.58332
1056.28	2.51969
1059.17	2.24819
1062.06	2.07599
1064.95	1.46755
1067.85	1.20428
1070.74	2.40344
1073.63	2.08126
1076.52	0.645147
1079.42	1.92419
1082.31	0.285662
1085.2	0.645517
1088.09	0.104366
1090.99	1.0523
1093.88	0.835419
1096.77	0.415624
1099.66	1.23516
1102.56	0.813826
1105.45	0.031096
1108.34	0.013204
1111.24	0.701512
1114.13	0.34712
1117.02	0.936659
1119.91	0.113343
1122.81	0.219947
1125.7	0.334287
1128.59	0.278371
1131.48	0.274423
1134.38	0.043954
1137.27	0.745352
1140.16	0.564713
1143.06	0.126977
1145.95	0.256146
1148.84	1.11267
1151.73	1.29533
1154.63	0.173719
1157.52	0.461248
1160.41	0.142154
1163.31	0.27851
1166.2	0.816321
1169.09	0.288914
1171.98	0.381037
1174.88	0.916207
1177.77	1.13883
1180.66	1.61799
1183.55	2.14043
1186.45	0.708496
1189.34	1.39187
1192.23	1.45138
1195.12	1.10808
1198.02	1.37971
1200.91	0.010691
1203.8	0.752681
1206.69	1.21558
1209.59	0.500575
1212.48	1.10962
1215.37	1.01811
1218.27	0.748936
1221.16	0.647574
1224.05	0.907846
1226.94	1.16186
1229.84	1.6338
1232.73	0.714362
1235.62	0.808944
1238.52	1.14114
1241.41	0.307154
1244.3	0.412518
1247.19	1.44772
1250.09	0.535763
1252.98	1.17571
1255.87	1.64435
1258.76	1.19932
1261.66	0.962062
1264.55	0.750333
1267.44	0.909111
1270.33	1.70056
1273.23	0.84949
1276.12	1.11787
1279.01	0.69955
1281.9	0.010611
1284.8	0
