Measurement: Raman, 532 nm, unoriented, Raman Data Processed
Mineral: Ferriallanite-(La)
Rruff sample: R141069
Ideal chemistry: CaLa^3+^(Fe^3+^AlFe^2+^)(SiO_4_)(Si_2_O_7_)O(OH)
Locality: In den Dellen quarries, Niedermendig, Mendig, Laach lake volcanic complex, Eifel, Rhineland-Palatinate, Germany
Source: Ch. and H. Sch√§fer
Description: Black tabular crystals embedded in matrix, associated with sanidine, magnetite and cancrinite.
Raman shift (cm-1)	intensity
182.35	0
185.242	0.852341
188.135	2.89481
191.028	2.68005
193.92	1.8819
196.813	2.22262
199.706	2.0631
202.599	1.66078
205.491	1.10362
208.384	0.562248
211.277	0.40979
214.169	0.426086
217.062	0.379234
219.955	0.646469
222.847	0.006119
225.74	0.213982
228.633	0.741875
231.525	0.505722
234.418	0.252487
237.311	0.436852
240.204	0.850685
243.096	1.39979
245.989	0.57399
248.882	0.51712
251.774	1.34061
254.667	0.405983
257.56	0.948372
260.452	3.66758
263.345	2.83181
266.238	0.868187
269.131	1.55807
272.023	2.37549
274.916	2.14146
277.809	4.15914
280.701	4.13589
283.594	3.60639
286.487	3.81177
289.38	4.58556
292.272	5.28383
295.165	6.36258
298.058	5.62664
300.95	7.48634
303.843	7.66158
306.736	8.12859
309.628	9.58067
312.521	9.46807
315.414	8.6431
318.307	8.95768
321.199	10.1239
324.092	9.66666
326.985	8.98566
329.877	8.27842
332.77	6.54252
335.663	7.77843
338.555	7.41754
341.448	6.67141
344.341	7.16032
347.233	5.75082
350.126	5.77835
353.019	4.49676
355.912	5.27706
358.804	3.32552
361.697	5.56841
364.59	3.46486
367.482	2.53418
370.375	2.16643
373.268	2.4178
376.161	2.41218
379.053	2.10094
381.946	1.07246
384.839	0.998489
387.731	0.912727
390.624	1.18836
393.517	0.102417
396.409	0.404976
399.302	0.262512
402.195	0.697281
405.087	0.60466
407.98	0.066353
410.873	0.657379
413.766	0.360321
416.658	1.22172
419.551	0.177078
422.444	0.018715
425.336	0.038109
428.229	0.701157
431.122	0.735191
434.014	0.863319
436.907	0.483322
439.8	1.7242
442.693	2.01915
445.585	2.29942
448.478	2.26656
451.371	2.26046
454.263	2.59164
457.156	2.99122
460.049	2.8138
462.942	2.84574
465.834	3.55097
468.727	2.96435
471.62	4.06178
474.512	4.0115
477.405	3.28397
480.298	3.47188
483.19	4.53898
486.083	4.6098
488.976	2.96561
491.868	1.93806
494.761	1.91631
497.654	2.16921
500.547	0.956398
503.439	0.234047
506.332	0.571533
509.225	0.003563
512.117	0.004364
515.01	0.029907
517.903	1.18951
520.795	0.776299
523.688	0.424271
526.581	0.228363
529.474	0.490318
532.366	0.157272
535.259	1.00304
538.152	0.740852
541.044	0.870888
543.937	1.12018
546.83	0.382477
549.722	1.22497
552.615	2.75474
555.508	3.21318
558.401	4.8251
561.293	6.92445
564.186	8.15011
567.079	9.1571
569.971	10.8238
572.864	12.9845
575.757	14.0831
578.649	15.3138
581.542	17.8745
584.435	17.8775
587.328	18.6011
590.22	20.2369
593.113	20.0617
596.006	20.2789
598.898	19.1715
601.791	18.9855
604.684	18.2385
607.577	17.1396
610.469	16.5507
613.362	15.4676
616.255	14.7729
619.147	13.2341
622.04	12.3115
624.933	12.1652
627.825	11.4161
630.718	9.62141
633.611	7.94791
636.504	7.56964
639.396	7.58005
642.289	7.04267
645.182	6.94646
648.074	7.58083
650.967	7.80485
653.86	8.45742
656.752	8.9863
659.645	10.2243
662.538	10.9343
665.431	11.5551
668.323	11.9227
671.216	11.1315
674.109	11.2971
677.001	9.76356
679.894	8.26121
682.787	8.87643
685.679	6.61723
688.572	5.269
691.465	4.75071
694.357	3.62063
697.25	2.68343
700.143	1.33833
703.036	0.326485
705.928	1.16387
708.821	0.096062
711.714	0.624268
714.606	0.094093
717.499	0.281822
720.392	0.890945
723.284	0.017746
726.177	0.694992
729.07	0.603317
731.963	0.33889
734.855	0.201706
737.748	1.46197
740.641	0.40889
743.533	0.547554
746.426	0.835258
749.319	0.507477
752.212	0.234222
755.104	1.06437
757.997	0.30352
760.89	1.2376
763.782	2.00235
766.675	1.8159
769.568	1.38845
772.46	2.62054
775.353	2.40675
778.246	3.46846
781.139	4.43851
784.031	5.39475
786.924	5.95937
789.817	6.15407
792.709	7.22741
795.602	6.32174
798.495	7.97375
801.388	9.62084
804.28	8.91008
807.173	9.07106
810.066	9.60304
812.958	10.5655
815.851	11.3167
818.744	12.279
821.636	12.5571
824.529	13.8849
827.422	15.1371
830.314	14.8027
833.207	14.8055
836.1	15.4916
838.993	16.7256
841.885	17.266
844.778	17.3378
847.671	18.0542
850.563	17.9883
853.456	18.303
856.349	18.1649
859.241	18.6795
862.134	18.1264
865.027	16.2985
867.92	16.0972
870.812	15.7453
873.705	13.7499
876.598	14.344
879.49	12.1122
882.383	12.5862
885.276	10.8875
888.168	9.54606
891.061	7.89059
893.954	6.80807
896.847	5.50623
899.739	5.13599
902.632	2.56629
905.525	2.97981
908.417	1.81018
911.31	1.4327
914.203	0.853394
917.096	0.602676
919.988	0.670891
922.881	0.180687
925.774	0.451927
928.666	1.53057
931.559	0.444405
934.452	0.547195
937.344	0.474274
940.237	0.417572
943.13	0.016106
946.023	0.105751
948.915	0.331879
951.808	0.327232
954.701	0.098228
957.593	0.176521
960.486	0.35968
963.379	0.067757
966.271	0.276443
969.164	1.48309
972.057	0.972939
974.949	1.93346
977.842	1.69113
980.735	0.661232
983.628	1.27882
986.52	1.89112
989.413	2.34524
992.306	2.35514
995.198	1.83024
998.091	2.46275
1000.98	2.28225
1003.88	3.2152
1006.77	2.43231
1009.66	3.52043
1012.55	3.57404
1015.45	3.4603
1018.34	3.37356
1021.23	3.82794
1024.12	3.72984
1027.02	4.15366
1029.91	4.28993
1032.8	5.22417
1035.7	5.37201
1038.59	6.96168
1041.48	6.16835
1044.37	5.53605
1047.27	5.9464
1050.16	5.48895
1053.05	5.58289
1055.94	4.59419
1058.84	3.26866
1061.73	3.97983
1064.62	2.99892
1067.52	3.24014
1070.41	2.52033
1073.3	2.49946
1076.19	1.86089
1079.09	1.55693
1081.98	2.73291
1084.87	1.41917
1087.77	1.48362
1090.66	1.48225
1093.55	1.2206
1096.44	0.026104
1099.34	0.941704
1102.23	0.324829
1105.12	1.09652
1108.01	0.660908
1110.91	0.323925
1113.8	1.37075
1116.69	1.17399
1119.58	0.202682
1122.48	0.84396
1125.37	0.213474
1128.26	1.01427
1131.15	0.479198
1134.05	0.22879
1136.94	0.436985
1139.83	0.674824
1142.73	0.402916
1145.62	0.459282
1148.51	0.41885
1151.4	0.258411
1154.3	1.22046
1157.19	0.250462
1160.08	0.485657
1162.97	0.13224
1165.87	0.431751
1168.76	0.01849
1171.65	0.23637
1174.55	1.09418
1177.44	0.723881
1180.33	0.383205
1183.22	0.693035
1186.12	1.21777
1189.01	1.01754
1191.9	1.57095
1194.8	0.491966
1197.69	1.17863
1200.58	1.4129
1203.47	1.66423
1206.37	0.671108
1209.26	0.861431
1212.15	0.615776
1215.04	0.686508
1217.94	0.861858
1220.83	1.18149
1223.72	1.05425
1226.61	0.877094
1229.51	0.407413
1232.4	0.719643
1235.29	1.65197
1238.18	0.435871
1241.08	1.43139
1243.97	0.89407
1246.86	0.045773
1249.76	0.496517
1252.65	0.845219
1255.54	0.923904
1258.43	1.01201
1261.33	0.393013
1264.22	0.992439
1267.11	0.187473
1270.01	1.03954
1272.9	0.637661
1275.79	0.749149
1278.68	0.752178
1281.58	0.438362
1284.47	0.986115
1287.36	0.793228
1290.25	0.197544
1293.15	0.066204
1296.04	0.296085
1298.93	1.14718
1301.83	0
