Measurement: Raman, 532 nm, unoriented, Raman Data Processed
Mineral: Garnet
Rruff sample: R141191
Locality: Synthetic
Source: Yuntao Wu
Description: Yellow vitreous fragment. Ideal formula: Gd3 Al2 Ga3 O12. Synthesized at 1800 degrees C.
Raman shift (cm-1)	intensity
145.026	0
147.919	13.6777
150.812	26.1553
153.705	13.6855
156.597	0.995117
159.49	9.70605
162.383	30.3906
165.275	39.4385
168.168	35.1572
171.061	93.8613
173.953	172.261
176.846	256.592
179.739	256.654
182.632	226.175
185.524	154.183
188.417	92.418
191.31	47.6103
194.202	22.4307
197.095	23.3535
199.988	25.9365
202.881	8.00977
205.773	0.960938
208.666	19.2812
211.559	19.4746
214.451	62.8125
217.344	59.8301
220.237	74.166
223.129	62.7891
226.022	52.9824
228.915	54.334
231.808	94.9551
234.7	149.773
237.593	163.353
240.486	136.176
243.378	109.998
246.271	80.2285
249.164	84.8672
252.056	146.668
254.949	154.391
257.842	176.889
260.735	163.412
263.627	162.748
266.52	170.797
269.413	94.4258
272.305	136.568
275.198	131.549
278.091	182.082
280.983	159.684
283.876	156.478
286.769	121.027
289.661	58.2852
292.554	3.08789
295.447	35.6836
298.34	4.39844
301.232	39.6055
304.125	39.7891
307.018	23.3105
309.91	4.91211
312.803	4.3457
315.696	27.8203
318.589	47.541
321.481	86.4062
324.374	114.186
327.267	125.543
330.159	146.889
333.052	219.301
335.945	269.523
338.837	326.924
341.73	429.922
344.623	563.848
347.515	755.838
350.408	946.4
353.301	1261.2
356.194	1578.11
359.086	1771.44
361.979	1718.2
364.872	1552.73
367.764	1396.67
370.657	1216.44
373.55	943.188
376.442	725.734
379.335	556.43
382.228	463.736
385.121	412.9
388.013	401.996
390.906	338.393
393.799	310.51
396.691	307.404
399.584	312.197
402.477	263.082
405.37	174.773
408.262	111.141
411.155	116.295
414.048	113.188
416.94	78.4981
419.833	40.7832
422.726	28.1621
425.618	22.4844
428.511	53.123
431.404	46.4551
434.296	10.2656
437.189	25.5684
440.082	9.18164
442.975	35.5918
445.867	5.57031
448.76	10.9395
451.653	17.5645
454.545	50.4023
457.438	52.5566
460.331	54.9043
463.224	11.9023
466.116	8.09375
469.009	15.9727
471.902	40.1562
474.794	50.9766
477.687	34.1152
480.58	6.16211
483.473	1.99414
486.365	6.00391
489.258	45.0547
492.151	59.3047
495.043	34.582
497.936	26.4629
500.829	84.1426
503.721	116.801
506.614	103.885
509.507	98.9297
512.399	82.0781
515.292	56.0879
518.185	57.6738
521.078	23.5
523.97	3.4082
526.863	18.5117
529.756	53.0859
532.648	111.619
535.541	73.0527
538.434	68.3965
541.327	31.8438
544.219	38.1816
547.112	36.8066
550.005	20.4863
552.897	50.6211
555.79	75.7188
558.683	70.7656
561.575	47.2227
564.468	38.2891
567.361	19.3965
570.254	32.9297
573.146	35.8438
576.039	20.7617
578.932	37.998
581.824	24.0605
584.717	66.9356
587.61	80.3184
590.502	87.7266
593.395	86.1445
596.288	96.2949
599.181	120.867
602.073	136.738
604.966	148.34
607.859	171.81
610.751	192.982
613.644	180.978
616.537	141.926
619.429	146.223
622.322	120.029
625.215	113.463
628.107	115.057
631	122.639
633.893	117.912
636.786	87.5684
639.678	60.3418
642.571	47.8457
645.464	56.5137
648.356	49.3613
651.249	79.5371
654.142	57.0508
657.034	57.8848
659.927	13.8887
662.82	10.8301
665.713	36.1641
668.605	2.53906
671.498	3.02734
674.391	22.7637
677.283	7.94531
680.176	58.5137
683.069	64.2305
685.962	51.9102
688.854	37.7949
691.747	26.8848
694.64	43.9355
697.532	75.5312
700.425	55.8574
703.318	40.0273
706.21	64.8691
709.103	65.6231
711.996	71.6699
714.889	107.602
717.781	115.385
720.674	111.584
723.567	149.674
726.459	166.289
729.352	182.69
732.245	216.44
735.137	265.029
738.03	377.094
740.923	454.148
743.816	564.225
746.708	760.301
749.601	1002.13
752.494	1090.16
755.386	1075.67
758.279	874.094
761.172	640.168
764.064	443.926
766.957	302.106
769.85	228.94
772.742	201.352
775.635	153.471
778.528	136.955
781.421	124.578
784.313	90.6719
787.206	39.5352
790.099	59.1875
792.991	80.0156
795.884	69.2637
798.777	92.8789
801.669	70.8242
804.562	91.5371
807.455	69.0098
810.348	46.916
813.24	67.8359
816.133	60.3027
819.026	110.482
821.918	90.7305
824.811	97.6816
827.704	84.8223
830.597	74.1699
833.489	102.756
836.382	63.6094
839.275	70.9727
842.167	50.7441
845.06	61.0391
847.953	9.63086
850.846	7.17188
853.738	10.3281
856.631	16.8438
859.524	13.0176
862.416	16.9199
865.309	32.5996
868.202	61.8379
871.094	70.9356
873.987	9.80664
876.88	5.05273
879.773	8.01172
882.665	6.80078
885.558	12.1406
888.451	3.86328
891.343	14.3711
894.236	73.1348
897.129	91.7637
900.021	123.631
902.914	117.35
905.807	132.303
908.699	157.225
911.592	182.709
914.485	217.451
917.378	250.059
920.27	288.484
923.163	343.967
926.056	356.566
928.948	338.053
931.841	307.719
934.734	260.562
937.626	222.606
940.519	208.523
943.412	201.113
946.305	132.303
949.197	93.5156
952.09	93.9453
954.983	91.1484
957.875	99.6387
960.768	104.252
963.661	100.141
966.553	57.957
969.446	22.1816
972.339	38.6953
975.232	65.8555
978.124	85.9082
981.017	28.3145
983.91	13.2676
986.802	10.9922
989.695	17.666
992.588	14.1211
995.481	9.43555
998.373	3.25977
1001.27	16.2656
1004.16	14.7852
1007.05	15.3047
1009.94	34.3027
1012.84	65.9121
1015.73	57.0117
1018.62	56.9668
1021.51	29.2832
1024.41	44.8789
1027.3	75.9277
1030.19	75.2441
1033.09	95.5625
1035.98	76.5098
1038.87	73.7461
1041.76	104.174
1044.66	108.623
1047.55	116.168
1050.44	112.117
1053.33	75.0527
1056.23	97.4199
1059.12	70.2812
1062.01	88.9922
1064.9	54.2109
1067.8	42.7363
1070.69	28.5586
1073.58	43.1973
1076.48	27.0938
1079.37	8.92188
1082.26	8.78125
1085.15	2.80469
1088.05	25.7773
1090.94	22.8867
1093.83	10.3047
1096.72	1.49023
1099.62	0.320313
1102.51	0.648438
1105.4	1.74609
1108.3	4.53516
1111.19	1.58398
1114.08	18.6016
1116.97	48.4395
1119.87	21.7656
1122.76	10.5352
1125.65	52.1191
1128.55	49.3711
1131.44	54.7246
1134.33	82.7715
1137.22	136.361
1140.12	198.062
1143.01	212.113
1145.9	166.557
1148.79	134.377
1151.69	166.342
1154.58	177.246
1157.47	187.551
1160.36	221.264
1163.26	261.732
1166.15	294.109
1169.04	306.397
1171.93	323.463
1174.83	386.404
1177.72	391.166
1180.61	452.34
1183.51	484.615
1186.4	524.602
1189.29	518.693
1192.18	517.51
1195.08	491.85
1197.97	432.812
1200.86	385.047
1203.76	373.219
1206.65	320.951
1209.54	330.277
1212.43	277.496
1215.33	240.846
1218.22	218.088
1221.11	190.685
1224	184.299
1226.9	119.973
1229.79	105.269
1232.68	78.043
1235.58	45.9629
1238.47	20.5859
1241.36	7.69922
1244.25	11.4375
1247.14	22.2949
1250.04	39.6621
1252.93	3.98047
1255.82	36.5586
1258.72	44.3574
1261.61	7.52148
1264.5	9.9707
1267.39	29.959
1270.29	25.6113
1273.18	17.6309
1276.07	2.95508
1278.96	54.9375
1281.86	56.6074
1284.75	70.2695
1287.64	94.7539
1290.54	69.2402
1293.43	71.5137
1296.32	21.5684
1299.21	2.11328
