Measurement: Raman, 532 nm, unoriented, Raman Data Processed
Mineral: Gehlenite
Rruff sample: R070478
Ideal chemistry: Ca_2_Al(SiAl)O_7_
Locality: Durham Ranch, South of Gillette, Sublette County, Wyoming, USA
Source: Michael Scott
Description: Brown short, tetragonal prismatic crystals, associated with esseneite R061123
Measured chemistry: (Ca_1.65_Na_0.34_K_0.01_)_Σ=2_(Al_0.64_Mg_0.21_Fe^3+^_0.15_)_Σ=1_(Si_1.56_Al_0.44_)_Σ=1_O_7_ ; = gray phase. The light phase is esseneite: (Ca_0.97_Na_0.03_)_Σ=1_(Fe^3+^_0.72_Mg_0.23_Ti_0.05_)_Σ=1_(Al_0.79_Si_0.21_)_Σ=1_Si_1.00_O_6_ (esseneite)
Raman shift (cm-1)	intensity
209.938	0
212.831	76.2852
215.724	114.359
218.616	43.1133
221.509	231.984
224.402	422.762
227.294	368.856
230.187	475.066
233.08	517.703
235.972	599.84
238.865	303.324
241.758	193.699
244.65	449.164
247.543	664.805
250.436	513.168
253.329	513.508
256.221	287.863
259.114	397.504
262.007	382.992
264.899	420.316
267.792	363.367
270.685	446.133
273.577	511.906
276.47	451.984
279.363	322.125
282.256	422.617
285.148	613.312
288.041	738.445
290.934	685.094
293.826	691.144
296.719	665.894
299.612	614.938
302.505	469.496
305.397	520.785
308.29	541.578
311.183	422.203
314.075	468.863
316.968	247.488
319.861	368.668
322.753	436.062
325.646	319.152
328.539	245.379
331.432	190.281
334.324	119.043
337.217	42.4961
340.11	48.6719
343.002	48.7734
345.895	1.73828
348.788	4.48047
351.68	130.938
354.573	236.836
357.466	232.016
360.359	141.453
363.251	138.074
366.144	136.676
369.037	100.215
371.929	6.61719
374.822	31.7891
377.715	553.637
380.608	100.023
383.5	23.1836
386.393	19.5156
389.286	214.25
392.178	304.316
395.071	232.871
397.964	323.32
400.856	159.18
403.749	146.863
406.642	109.606
409.534	116.055
412.427	119.531
415.32	305.68
418.213	160.301
421.105	234.441
423.998	86.6602
426.891	286.211
429.783	262.004
432.676	55.5078
435.569	214.523
438.462	482.211
441.354	284.356
444.247	88.0781
447.14	266.637
450.032	149.316
452.925	313.332
455.818	256.535
458.71	563.445
461.603	295.41
464.496	245.566
467.389	239.621
470.281	221.269
473.174	92.0195
476.067	109.215
478.959	48.0664
481.852	360.844
484.745	292.91
487.637	219.117
490.53	197.703
493.423	30.5859
496.315	195.769
499.208	138.981
502.101	218.301
504.994	49.8711
507.886	164.5
510.779	185.625
513.672	292.641
516.564	427.519
519.457	191.375
522.35	200.262
525.242	136.633
528.135	117.422
531.028	124.898
533.92	365.961
536.813	309.707
539.706	235.461
542.599	141.832
545.491	459.816
548.384	445.703
551.277	409.258
554.169	280.207
557.062	382.551
559.955	254.738
562.847	168.305
565.74	102.973
568.633	240.969
571.526	227.703
574.418	504.582
577.311	202.812
580.204	201.676
583.096	15.3555
585.989	150.531
588.882	31.2734
591.775	282.242
594.667	540.91
597.56	516.219
600.453	658.879
603.345	810.453
606.238	841.066
609.131	1144.38
612.024	1074.79
614.916	969.356
617.809	1088.48
620.702	952.684
623.594	897.91
626.487	956.492
629.38	803.352
632.272	729.269
635.165	701.269
638.058	238.981
640.951	128.469
643.843	246.371
646.736	240.621
649.629	342.781
652.521	230.66
655.414	331.703
658.307	236.918
661.199	232.93
664.092	127.328
666.985	84.7383
669.878	22.9258
672.77	36.6836
675.663	11.2148
678.556	32.8086
681.448	72.3984
684.341	3.37109
687.234	78.6641
690.126	370.906
693.019	284.812
695.912	334.125
698.804	358.188
701.697	523.297
704.59	644.082
707.483	747.113
710.375	733.074
713.268	772.676
716.161	1032.79
719.053	1110.63
721.946	1033.29
724.839	958.449
727.731	1401.02
730.624	1263.96
733.517	1335.53
736.41	788.523
739.302	843.106
742.195	723.109
745.088	634.797
747.98	599.047
750.873	493.18
753.766	335.707
756.659	369.41
759.551	345.781
762.444	242.461
765.337	142.094
768.229	45.4102
771.122	212.41
774.015	171.551
776.907	61.0781
779.8	95.6992
782.693	279.996
785.586	498.898
788.478	555.523
791.371	341.18
794.264	252.965
797.156	87.0898
800.049	67.625
802.942	45.1016
805.834	325.41
808.727	225.91
811.62	152.312
814.513	200.957
817.405	40.0898
820.298	101.414
823.191	31.6875
826.083	255.422
828.976	371.426
831.869	115.625
834.761	57.1133
837.654	79.1992
840.547	165.793
843.439	322.309
846.332	443.375
849.225	397.574
852.118	498.547
855.01	469.445
857.903	221.18
860.796	247.43
863.688	628.477
866.581	620.606
869.474	465.91
872.366	249.539
875.259	340.438
878.152	556.68
881.045	659.152
883.937	621.504
886.83	532.492
889.723	609.133
892.615	633.188
895.508	673.106
898.401	619
901.293	557.707
904.186	672.277
907.079	1104.91
909.972	943.848
912.864	893.824
915.757	758.148
918.65	575.754
921.542	461.809
924.435	638.379
927.328	583.922
930.221	297.523
933.113	263.106
936.006	290.203
938.899	332.836
941.791	214.527
944.684	167.516
947.577	249.863
950.469	6.17188
953.362	18.418
956.255	20.7461
959.148	262.07
962.04	298.547
964.933	370.09
967.826	381.961
970.718	323.445
973.611	334.746
976.504	210.754
979.396	64.9492
982.289	29.0859
985.182	191.883
988.074	258.879
990.967	463.941
993.86	363.402
996.753	133.586
999.645	162.961
1002.54	56.168
1005.43	224.93
1008.32	322.644
1011.22	269.879
1014.11	343.086
1017	222.426
1019.89	64.9883
1022.79	17.7695
1025.68	124.68
1028.57	700.945
1031.46	765.543
1034.36	364.914
1037.25	49.4453
1040.14	11.1836
1043.04	106.133
1045.93	217.551
1048.82	315.867
1051.71	333.465
1054.61	305.316
1057.5	110.191
1060.39	85.5273
1063.29	465.324
1066.18	668.106
1069.07	586.406
1071.96	590.465
1074.86	489.594
1077.75	214.578
1080.64	287.188
1083.53	158.977
1086.43	230.859
1089.32	179.918
1092.21	130.535
1095.1	70.0547
1098	243.238
1100.89	474.254
1103.78	271.422
1106.67	149.027
1109.57	142.082
1112.46	345.867
1115.35	726.926
1118.25	569.066
1121.14	211.551
1124.03	89.8203
1126.92	124.637
1129.82	256.473
1132.71	353.934
1135.6	222.996
1138.49	117.473
1141.39	200.481
1144.28	303.75
1147.17	278.957
1150.07	300.336
1152.96	342.555
1155.85	414.984
1158.74	55.5312
1161.64	42.9336
1164.53	105.766
1167.42	96.3711
1170.32	198.16
1173.21	289.965
1176.1	190.156
1178.99	535.633
1181.88	518.562
1184.78	1018.24
1187.67	581.777
1190.56	511.527
1193.46	695.023
1196.35	374.426
1199.24	362.047
1202.13	433.004
1205.03	215.922
1207.92	108.445
1210.81	133.477
1213.7	276.66
1216.6	527.035
1219.49	483.422
1222.38	1117.62
1225.28	747.93
1228.17	429.019
1231.06	220.832
1233.95	128.051
1236.85	471.719
1239.74	469.957
1242.63	207.066
1245.53	99.8047
1248.42	110.262
1251.31	368.922
1254.2	245.926
1257.1	130.418
1259.99	81.0312
1262.88	446.328
1265.77	374.445
1268.67	687.633
1271.56	584.016
1274.45	60.5781
1277.35	366.648
1280.24	226.305
1283.13	305.695
1286.02	433.164
1288.91	323.875
1291.81	216
1294.7	263.766
1297.59	12.3203
1300.49	250.797
