Measurement: Raman, 785 nm, unoriented, Raman Data Processed
Mineral: Guyanaite
Rruff sample: R070444
Ideal chemistry: Cr^3+^O(OH)
Locality: Merume river, Kamakusa, Mazaruni District, Guyana
Source: Michael Scott
Description: Black alluvial grains, a mixture of guyanaite, bracewellite, eskolaite and quartz, colloquially known as merumite
Raman shift (cm-1)	intensity
163.455	0
166.348	132.87
169.241	76.5469
172.133	127.464
175.026	67.793
177.919	183.636
180.812	217.398
183.704	303.998
186.597	342.223
189.49	410.431
192.382	410.967
195.275	394.787
198.168	570.52
201.06	455.233
203.953	515.648
206.846	390.725
209.739	375.353
212.631	295.492
215.524	372.059
218.417	349.703
221.309	340.644
224.202	314.157
227.095	212.859
229.988	219.011
232.88	176.54
235.773	180.454
238.666	190.266
241.558	140.041
244.451	183.091
247.344	41.081
250.236	81.6455
253.129	42.6055
256.022	87.4736
258.915	6.01562
261.807	21.252
264.7	21.4033
267.593	19.582
270.485	9.66113
273.378	10.4092
276.271	47.1016
279.163	8.26367
282.056	50.3594
284.949	14.6846
287.842	105.787
290.734	129.971
293.627	124.5
296.52	149.516
299.412	158.287
302.305	235.012
305.198	235.143
308.09	276.488
310.983	317.635
313.876	255.909
316.769	279.715
319.661	235.057
322.554	290.845
325.447	290.635
328.339	295.717
331.232	325.39
334.125	316.538
337.017	214.962
339.91	241.233
342.803	195.837
345.695	240.998
348.588	150.591
351.481	230.239
354.374	158.809
357.266	123.663
360.159	21.3203
363.052	9.00488
365.944	28.2793
368.837	9.68555
371.73	57.2598
374.623	24.8096
377.515	43.3887
380.408	15.125
383.301	22.7314
386.193	1.16894
389.086	12.165
391.979	65.6445
394.871	102.524
397.764	176.752
400.657	131.649
403.55	215.05
406.442	145.024
409.335	146.157
412.228	186.859
415.12	231.963
418.013	232.581
420.906	163.307
423.798	303.917
426.691	234.098
429.584	255.96
432.476	403.337
435.369	410.557
438.262	578.657
441.155	696.407
444.047	777.494
446.94	769.795
449.833	755.278
452.725	750.414
455.618	599.067
458.511	549.859
461.404	401.246
464.296	383.058
467.189	340.209
470.082	361.756
472.974	306.976
475.867	251.539
478.76	257.649
481.652	275.078
484.545	282.82
487.438	260.357
490.33	277.332
493.223	278.771
496.116	270.356
499.009	134.02
501.901	97.8769
504.794	74.916
507.687	66.6641
510.579	47.0352
513.472	39.7012
516.365	13.417
519.258	10.4502
522.15	15.126
525.043	45.3115
527.936	4.43457
530.828	63.207
533.721	20.4287
536.614	90.7812
539.506	43.4912
542.399	102.218
545.292	143.667
548.185	188.715
551.077	235.769
553.97	359.102
556.863	520.576
559.755	629.485
562.648	728.782
565.541	831.465
568.433	913.369
571.326	1011.24
574.219	1067.21
577.111	1044.85
580.004	1008.44
582.897	939.396
585.79	764.798
588.682	697.289
591.575	507.873
594.468	396.635
597.36	399.85
600.253	325.292
603.146	261.844
606.038	300.66
608.931	259.318
611.824	253.653
614.717	240.045
617.609	250.042
620.502	254.232
623.395	272.275
626.287	212.949
629.18	213.067
632.073	138.329
634.966	100.258
637.858	106.804
640.751	86.6417
643.644	35.7685
646.536	69.9834
649.429	11.5781
652.322	41.29
655.214	37.4268
658.107	59.6162
661	54.1182
663.893	14.0859
666.785	8.40918
669.678	117.822
672.571	131.719
675.463	238.233
678.356	215.642
681.249	347.275
684.141	263.082
687.034	495.567
689.927	536.216
692.819	542.174
695.712	595.447
698.605	593.164
701.498	643.029
704.39	649.219
707.283	675.536
710.176	590.099
713.068	559.064
715.961	554.74
718.854	520.085
721.746	449.96
724.639	415.302
727.532	398.587
730.425	311.76
733.317	329.96
736.21	258.836
739.103	303.4
741.995	209.282
744.888	196.641
747.781	153.332
750.673	99.3711
753.566	115.831
756.459	72.9775
759.352	90.333
762.244	50.4385
765.137	11.1797
768.03	33.3418
770.922	9.99414
773.815	33.3486
776.708	46.915
779.601	18.2627
782.493	59
785.386	40.9902
788.279	89.3418
791.171	0.227539
794.064	12.0527
796.957	68.1309
799.849	81.585
802.742	69.4404
805.635	51.0518
808.528	95.3486
811.42	78.4727
814.313	75.6484
817.206	74.0644
820.098	114.926
822.991	138.556
825.884	171.777
828.776	184.159
831.669	183.665
834.562	137.575
837.455	150.878
840.347	180.013
843.24	178.77
846.133	163.129
849.025	121.854
851.918	139.497
854.811	139.676
857.703	145.859
860.596	154.493
863.489	152.126
866.381	101.26
869.274	115.751
872.167	92.3755
875.06	87.7588
877.952	77.9077
880.845	68.1226
883.738	102.93
886.63	22.1064
889.523	13.9556
892.416	30.4639
895.308	36.3091
898.201	49.8081
901.094	35.8115
903.987	34.897
906.879	24.1138
909.772	49.4165
912.665	75.0347
915.557	43.0542
918.45	52.0977
921.343	2.2876
924.236	58.0684
927.128	75.5527
930.021	13.4517
932.914	21.7251
935.806	68.2085
938.699	116.639
941.592	78.1484
944.484	16.5161
947.377	57.2134
950.27	19.2612
953.163	38.0532
956.055	114.999
958.948	39.1128
961.841	15.3135
964.733	53.5586
967.626	53.4844
970.519	6.08203
973.411	61.6416
976.304	45.6289
979.197	103.094
982.09	30.9722
984.982	11.1245
987.875	37.6074
990.768	26.9287
993.66	35.1206
996.553	55.4692
999.446	20.6001
1002.34	42.2207
1005.23	56.1831
1008.12	133.338
1011.02	86.1426
1013.91	76.9038
1016.8	96.6269
1019.7	5.07422
1022.59	31.8189
1025.48	39.7578
1028.37	36.8169
1031.27	3.73291
1034.16	118.184
1037.05	71.1802
1039.94	47.0537
1042.84	18.5122
1045.73	67.7095
1048.62	36.4473
1051.51	69.7163
1054.41	20.0093
1057.3	48.7192
1060.19	23.4722
1063.09	45.3994
1065.98	58.2588
1068.87	77.5459
1071.76	68.0254
1074.66	50.9863
1077.55	83.9756
1080.44	74.6069
1083.33	32.3081
1086.23	105.49
1089.12	56.8935
1092.01	67.8984
1094.9	31.3311
1097.8	1.28955
1100.69	32.6895
1103.58	51.8935
1106.48	37.2647
1109.37	64.5996
1112.26	93.4243
1115.15	19.251
1118.05	33.1792
1120.94	25.5869
1123.83	88.7305
1126.72	22.9941
1129.62	15.4912
1132.51	4.21289
1135.4	60.1289
1138.3	60.8193
1141.19	33.6987
1144.08	81.0029
1146.97	48.2056
1149.87	80.2549
1152.76	33.6943
1155.65	61.4321
1158.54	16.7314
1161.44	39.0093
1164.33	29.4658
1167.22	65.2271
1170.12	23.5356
1173.01	58.0962
1175.9	104.396
1178.79	53.9214
1181.69	6.72412
1184.58	81.9458
1187.47	53.2393
1190.36	45.7192
1193.26	63.2632
1196.15	118.94
1199.04	60.7808
1201.93	55.8999
1204.83	36.167
1207.72	63.0693
1210.61	35.7798
1213.51	64.7602
1216.4	2.52393
1219.29	84.814
1222.18	29.501
1225.08	64.3457
1227.97	50.9858
1230.86	49.7954
1233.75	57.0518
1236.65	67.9565
1239.54	43.1758
1242.43	39.0322
