Measurement: Raman, 780 nm, unoriented, Raman Data Processed
Mineral: Hercynite
Rruff sample: R170038
Ideal chemistry: Fe^2+^Al_2_O_4_
Locality: LePrese, Veltlin, Switzerland
Source: Rock Currier
Description: Dark-green grains
Measured chemistry: (Fe_0.65_Mg_0.35_Mn_0.01_)(Al_1.96_Fe_0.04_)O_4_   ; Probed with R130646
Raman shift (cm-1)	intensity
95.345	0
98.7198	2.63672
102.095	15.3569
105.469	11.2092
108.844	14.5873
112.219	6.17285
115.594	25.7856
118.969	28.0256
122.344	43.9391
125.718	51.7997
129.093	68.8061
132.468	61.2139
135.843	57.2451
139.218	50.3887
142.592	24.4793
145.967	13.3751
149.342	3.68756
152.717	3.46973
156.092	1.47583
159.466	3.10516
162.841	16.1129
166.216	24.2547
169.591	40.4818
172.966	52.3208
176.34	64.9633
179.715	74.689
183.09	88.122
186.465	100.319
189.84	104.665
193.215	107.012
196.589	112.465
199.964	105.622
203.339	95.984
206.714	85.5281
210.089	60.0883
213.464	44.4904
216.838	32.2831
220.213	23.209
223.588	16.7776
226.963	6.16501
230.338	8.03332
233.712	9.54071
237.087	10.5129
240.462	7.37564
243.837	9.79169
247.212	8.69391
250.587	8.85367
253.961	7.62976
257.336	8.67798
260.711	9.94388
264.086	14.2439
267.461	10.0909
270.835	7.2308
274.21	5.68487
277.585	3.81238
280.96	2.91003
284.335	7.36536
287.709	11.209
291.084	5.16751
294.459	7.27634
297.834	3.12576
301.209	8.47339
304.584	6.04932
307.958	8.10013
311.333	6.74979
314.708	3.09766
318.083	4.30591
321.458	2.48087
324.832	4.2912
328.207	5.67184
331.582	6.17099
334.957	5.52158
338.332	3.5719
341.707	0.045105
345.081	1.8417
348.456	4.15802
351.831	3.50122
355.206	4.29275
358.581	0.91098
361.955	3.70102
365.33	7.76425
368.705	3.82752
372.08	1.00516
375.455	6.2395
378.829	3.17978
382.204	9.15875
385.579	14.3423
388.954	22.5626
392.329	22.2506
395.704	32.2328
399.078	34.8173
402.453	34.029
405.828	24.2972
409.203	10.986
412.578	10.372
415.952	6.11737
419.327	3.41251
422.702	3.96133
426.077	3.51144
429.452	3.34701
432.827	2.06152
436.201	2.86636
439.576	3.29584
442.951	2.06155
446.326	0.634216
449.701	3.17776
453.075	8.56992
456.45	12.2975
459.825	8.50089
463.2	13.7091
466.575	7.87018
469.95	12.8756
473.324	12.2582
476.699	16.6539
480.074	12.3037
483.449	13.7154
486.824	14.1786
490.198	11.4481
493.573	14.5517
496.948	14.9216
500.323	15.3358
503.698	13.0902
507.072	11.7758
510.447	16.6997
513.822	7.69517
517.197	11.005
520.572	6.84868
523.947	5.68346
527.321	1.51801
530.696	5.24925
534.071	1.90657
537.446	4.08963
540.821	2.29604
544.195	2.36539
547.57	2.42999
550.945	2.66411
554.32	3.48007
557.695	7.38467
561.069	8.38946
564.444	6.02058
567.819	8.10106
571.194	6.97992
574.569	4.98714
577.943	10.6966
581.318	12.3822
584.693	13.0818
588.068	14.2902
591.443	20.4823
594.818	18.6973
598.192	21.7038
601.567	30.2304
604.942	36.1477
608.317	34.0088
611.692	36.7128
615.067	32.3289
618.441	29.4201
621.816	26.0816
625.191	22.2023
628.566	19.3534
631.941	16.8953
635.315	18.2842
638.69	11.5245
642.065	11.3054
645.44	10.058
648.815	1.6698
652.189	7.41562
655.564	3.6707
658.939	0.771667
662.314	4.21663
665.689	0.418381
669.063	3.59276
672.438	2.22138
675.813	1.6068
679.188	5.48607
682.563	4.05777
685.938	11.6477
689.312	10.3448
692.687	7.84163
696.062	10.5162
699.437	11.0704
702.812	8.37383
706.187	4.94899
709.561	7.40566
712.936	8.98337
716.311	10.0771
719.686	10.9113
723.061	11.6662
726.435	10.9819
729.81	13.3336
733.185	17.3175
736.56	20.3396
739.935	23.6744
743.309	26.1393
746.684	30.5009
750.059	29.8656
753.434	29.0207
756.809	32.6439
760.184	26.6323
763.558	27.6454
766.933	20.4674
770.308	15.7374
773.683	17.3606
777.058	15.8118
780.432	13.851
783.807	8.57967
787.182	9.98947
790.557	6.64601
793.932	8.92024
797.307	8.06957
800.681	2.17055
804.056	2.70815
807.431	4.93677
810.806	1.79692
814.181	3.06351
817.555	3.44002
820.93	1.92607
824.305	1.79407
827.68	0.950851
831.055	5.69902
834.429	0.939682
837.804	2.50751
841.179	0.934753
844.554	2.78784
847.929	2.72913
851.304	0.475723
854.678	2.72382
858.053	2.55524
861.428	1.3916
864.803	3.31595
868.178	0.971725
871.553	1.81831
874.927	3.23849
878.302	2.43144
881.677	2.92799
885.052	3.66324
888.427	0.124702
891.801	5.40002
895.176	4.67103
898.551	3.23864
901.926	4.44255
905.301	5.78186
908.675	5.64
912.05	4.71436
915.425	3.14632
918.8	3.20971
922.175	4.12322
925.549	2.49102
928.924	2.73584
932.299	1.64016
935.674	3.37412
939.049	2.28883
942.424	4.80763
945.798	5.4677
949.173	2.32027
952.548	4.27379
955.923	1.85735
959.298	4.91352
962.673	0.241089
966.047	4.68848
969.422	5.07081
972.797	4.6561
976.172	1.11419
979.547	3.21513
982.921	2.09197
986.296	1.05812
989.671	0.573181
993.046	1.62457
996.421	0.739403
999.795	1.02986
1003.17	2.13788
1006.54	1.40953
1009.92	2.50753
1013.29	0.935127
1016.67	3.49398
1020.04	0.43187
1023.42	4.04194
1026.79	0.572876
1030.17	5.19276
1033.54	2.27147
1036.92	6.23836
1040.29	3.08245
1043.67	3.19038
1047.04	1.94459
1050.42	3.35206
1053.79	5.23144
1057.17	2.42216
1060.54	4.19516
1063.92	2.50595
1067.29	4.86202
1070.67	3.51032
1074.04	5.71556
1077.42	1.22346
1080.79	3.5527
1084.17	2.4539
1087.54	5.07305
1090.91	1.89146
1094.29	2.8839
1097.66	1.58327
1101.04	4.27109
1104.41	4.98701
1107.79	5.47687
1111.16	0.309769
1114.54	0.860573
1117.91	1.00264
1121.29	1.20347
1124.66	4.41584
1128.04	1.86813
1131.41	3.23393
1134.79	1.55782
1138.16	6.01081
1141.54	4.53721
1144.91	6.27276
1148.29	2.89254
1151.66	1.7167
1155.04	4.88
1158.41	0.70668
1161.79	5.81693
1165.16	4.40512
1168.54	5.30211
1171.91	3.81252
1175.29	4.65745
1178.66	3.38818
1182.04	3.89236
1185.41	2.71461
1188.79	1.70988
1192.16	6.06665
1195.54	7.1582
1198.91	0.123268
1202.28	4.95567
1205.66	0.383736
1209.03	2.57863
1212.41	6.16584
1215.78	4.28063
1219.16	2.73515
1222.53	6.95405
1225.91	3.97531
1229.28	4.53132
1232.66	0.032265
1236.03	4.62099
1239.41	1.80987
1242.78	4.36953
1246.16	2.44848
1249.53	3.98759
1252.91	4.52392
1256.28	3.4174
1259.66	3.8549
1263.03	3.74214
1266.41	0.595802
1269.78	0.177399
1273.16	0.732491
1276.53	2.82994
1279.9	5.88026
1283.28	1.13549
