Measurement: Raman, 532 nm, unoriented, Raman Data Processed
Mineral: Hercynite
Rruff sample: R170038
Ideal chemistry: Fe^2+^Al_2_O_4_
Locality: LePrese, Veltlin, Switzerland
Source: Rock Currier
Description: Dark-green grains
Measured chemistry: (Fe_0.65_Mg_0.35_Mn_0.01_)(Al_1.96_Fe_0.04_)O_4_   ; Probed with R130646
Raman shift (cm-1)	intensity
88.5137	0
91.8885	24.5228
95.2633	27.6518
98.6381	20.2848
102.013	3.17181
105.388	12.5082
108.763	23.0096
112.137	14.5193
115.512	30.3063
118.887	23.9851
122.262	17.9121
125.637	22.0965
129.012	18.4834
132.386	16.847
135.761	12.0866
139.136	18.0608
142.511	14.0652
145.886	1.47481
149.26	11.7895
152.635	4.42238
156.01	8.9185
159.385	0.194687
162.76	2.73576
166.134	4.10986
169.509	6.19327
172.884	3.17517
176.259	13.978
179.634	19.5733
183.008	21.2996
186.383	23.8663
189.758	20.2098
193.133	24.1433
196.508	31.1096
199.883	30.5139
203.257	21.5865
206.632	19.6322
210.007	16.1668
213.382	10.8114
216.757	9.56041
220.131	10.6057
223.506	0.251999
226.881	0.87915
230.256	3.53537
233.631	0.963654
237.006	1.07365
240.38	2.47826
243.755	1.47819
247.13	2.63234
250.505	4.77451
253.88	3.89325
257.255	2.95929
260.629	5.62299
264.004	7.73415
267.379	6.20769
270.754	6.09334
274.128	8.71462
277.503	11.4067
280.878	3.11569
284.253	5.09338
287.628	10.1666
291.003	6.28265
294.377	10.0297
297.752	10.6506
301.127	9.94887
304.502	7.97574
307.877	8.13579
311.252	8.1248
314.626	0.88649
318.001	3.71875
321.376	3.87781
324.751	4.86909
328.126	8.04645
331.5	0.744797
334.875	2.41364
338.25	3.01143
341.625	2.57129
345	6.83446
348.375	5.23985
351.749	0.141983
355.124	7.46529
358.499	3.87582
361.874	8.33867
365.249	4.88643
368.623	8.66577
371.998	3.66505
375.373	13.3359
378.748	11.393
382.123	16.6833
385.498	30.2964
388.872	35.8983
392.247	42.5552
395.622	54.8569
398.997	68.5062
402.372	69.4029
405.746	51.0939
409.121	34.8037
412.496	20.0261
415.871	15.5266
419.246	11.8859
422.62	4.41608
425.995	6.34497
429.37	1.82613
432.745	2.89435
436.12	2.95314
439.495	1.26443
442.869	4.19855
446.244	0.983826
449.619	2.14037
452.994	3.18051
456.369	8.2323
459.743	7.3795
463.118	11.4529
466.493	9.13713
469.868	12.0151
473.243	10.238
476.618	9.20895
479.992	7.28104
483.367	11.9319
486.742	11.8553
490.117	8.44646
493.492	8.61845
496.866	15.0705
500.241	18.6317
503.616	17.6761
506.991	18.7156
510.366	23.424
513.74	23.3636
517.115	18.6567
520.49	19.9836
523.865	10.4241
527.24	5.64282
530.615	0.726318
533.989	8.6008
537.364	0.411987
540.739	2.41492
544.114	8.47868
547.489	0.763535
550.864	5.69421
554.238	5.65289
557.613	10.1264
560.988	15.8737
564.363	11.8607
567.737	12.8631
571.112	11.8345
574.487	17.4145
577.862	18.1176
581.237	23.3536
584.612	27.1416
587.986	39.9688
591.361	39.2892
594.736	44.8973
598.111	54.4119
601.486	65.2722
604.861	81.5062
608.235	96.0407
611.61	104.238
614.985	105.915
618.36	106.989
621.735	98.7276
625.109	83.4082
628.484	76.243
631.859	59.591
635.234	57.456
638.609	52.684
641.984	50.4566
645.358	39.1501
648.733	40.8662
652.108	35.774
655.483	25.8445
658.857	19.4397
662.232	9.29816
665.607	4.06545
668.982	1.86136
672.357	5.27934
675.732	9.61682
679.106	4.49409
682.481	2.26663
685.856	13.0787
689.231	21.1409
692.606	29.8135
695.981	33.8983
699.355	28.2326
702.73	26.1787
706.105	18.2116
709.48	24.0698
712.855	18.0098
716.229	16.6033
719.604	22.5926
722.979	33.9029
726.354	28.8328
729.729	32.0748
733.104	34.1505
736.478	50.0143
739.853	63.5146
743.228	77.5381
746.603	91.0505
749.978	108.205
753.352	120.998
756.727	113.631
760.102	110.943
763.477	92.0208
766.852	88.2427
770.226	60.0625
773.601	58.6891
776.976	48.8438
780.351	44.6317
783.726	35.3722
787.101	24.4856
790.475	16.7704
793.85	13.915
797.225	14.5409
800.6	15.1792
803.975	5.87657
807.349	8.70805
810.724	8.43701
814.099	4.96771
817.474	4.90341
820.849	5.09657
824.223	0.880325
827.598	2.67897
830.973	0.472137
834.348	4.05843
837.723	5.69936
841.098	1.8087
844.472	2.73877
847.847	0.28656
851.222	0.31076
854.597	0.475204
857.972	1.79446
861.346	0.338974
864.721	2.99467
868.096	6.84569
871.471	2.05397
874.846	14.3643
878.221	5.29634
881.595	9.55237
884.97	6.51187
888.345	6.46799
891.72	7.11374
895.095	8.82071
898.47	7.95752
901.844	11.1742
905.219	6.54115
908.594	10.8662
911.969	13.7172
915.344	13.7188
918.718	15.8538
922.093	9.45871
925.468	9.62465
928.843	8.94621
932.218	9.19843
935.592	5.53125
938.967	5.88866
942.342	6.96078
945.717	7.62901
949.092	8.78154
952.467	7.66894
955.841	2.933
959.216	3.92395
962.591	2.67702
965.966	6.12843
969.341	1.34273
972.716	5.51712
976.09	1.67493
979.465	5.19133
982.84	8.97575
986.215	2.99999
989.59	3.82419
992.964	5.41629
996.339	1.12563
999.714	0.947159
1003.09	5.11609
1006.46	2.7639
1009.84	3.50795
1013.21	3.1449
1016.59	9.3726
1019.96	4.25285
1023.34	1.56403
1026.71	3.54379
1030.09	2.6311
1033.46	3.01175
1036.84	5.78174
1040.21	4.04759
1043.59	1.26871
1046.96	3.47902
1050.34	4.8741
1053.71	7.73549
1057.09	10.3862
1060.46	5.89363
1063.84	2.70358
1067.21	2.22229
1070.59	5.02112
1073.96	3.70009
1077.34	3.24434
1080.71	2.70805
1084.08	5.62871
1087.46	0.545074
1090.83	2.96373
1094.21	4.67542
1097.58	7.07765
1100.96	1.36325
1104.33	2.53331
1107.71	1.8849
1111.08	4.51764
1114.46	3.60628
1117.83	4.91478
1121.21	1.17068
1124.58	1.9012
1127.96	4.68959
1131.33	5.85144
1134.71	5.91196
1138.08	2.10297
1141.46	5.17993
1144.83	8.75951
1148.21	3.78539
1151.58	2.59787
1154.95	1.78468
1158.33	9.33154
1161.7	0.845215
1165.08	5.09561
1168.45	10.4491
1171.83	9.58798
1175.2	5.30084
1178.58	5.23012
1181.95	9.99512
1185.33	6.91183
1188.7	7.26843
1192.08	8.19424
1195.45	7.13872
1198.83	8.47795
1202.2	6.16232
1205.58	7.48477
1208.95	5.74371
1212.33	4.23801
1215.7	7.5068
1219.08	5.07519
1222.45	8.08128
1225.83	11.6198
1229.2	9.11079
1232.58	8.13492
1235.95	6.80379
1239.33	5.92635
1242.7	2.16083
1246.08	7.76968
1249.45	1.0553
1252.83	6.6449
1256.2	3.24765
1259.58	4.90949
1262.95	1.04842
1266.32	5.07745
1269.7	6.22247
1273.07	4.38863
1276.45	6.14035
1279.82	6.39996
1283.2	6.00619
1286.57	8.7211
1289.95	4.49562
1293.32	3.85744
1296.7	14.7356
1300.07	2.1058
