Measurement: Raman, 785 nm, unoriented, Raman Data Processed
Mineral: Kostovite
Rruff sample: R070282
Ideal chemistry: AuCuTe_4_
Locality: Chelopech mine, Chelopech Obshchina, Balkan Mts, Sofiya Oblast, Bulgaria
Source: Michael Scott
Description: Dark gray metallic fragment embedded in epoxy. Portion of type sample
Measured chemistry: Au_1.00_(Cu_0.85_Ag_0.28_)_Î£=1.13_Te_4_ ; normalized to Te_4_
Raman shift (cm-1)	intensity
184.177	0
187.069	106.118
189.962	73.7666
192.855	83.9785
195.748	16.2373
198.64	96.4404
201.533	148.093
204.426	178.494
207.318	85.4785
210.211	105.083
213.104	28.2471
215.996	31.7139
218.889	23.5107
221.782	5.53223
224.674	74.3291
227.567	24.8066
230.46	57.2139
233.353	24.8623
236.245	53.5
239.138	39.6182
242.031	141.26
244.923	123.316
247.816	8.19434
250.709	104.692
253.601	39.3916
256.494	105.856
259.387	49.5107
262.28	159.724
265.172	150.707
268.065	206.12
270.958	169.614
273.85	179.29
276.743	239.349
279.636	302.966
282.529	351.816
285.421	474.545
288.314	565.855
291.207	530.117
294.099	651.861
296.992	637.582
299.885	725.423
302.777	775.517
305.67	826.64
308.563	731.854
311.455	745.964
314.348	627.8
317.241	728.565
320.134	613.495
323.026	679.694
325.919	618.316
328.812	664.598
331.704	713.561
334.597	665.104
337.49	740.586
340.382	619.845
343.275	673.424
346.168	737.923
349.061	762.417
351.953	969.945
354.846	1078.54
357.739	1064.87
360.631	1376.37
363.524	1636.36
366.417	1884.57
369.31	2187.86
372.202	2315.37
375.095	2499.33
377.988	2355.18
380.88	1815.23
383.773	1287.86
386.666	707.665
389.558	339.595
392.451	203.499
395.344	65.4053
398.236	42.0547
401.129	62.6914
404.022	31.9053
406.915	73.7998
409.807	4.19336
412.7	1.82519
415.593	1.54199
418.485	2.48535
421.378	45.8965
424.271	82.7695
427.163	88.7393
430.056	68.0606
432.949	158.247
435.842	112.158
438.734	141.74
441.627	170.592
444.52	144.882
447.412	185.971
450.305	244.345
453.198	226.346
456.091	258.711
458.983	187.365
461.876	148.326
464.769	152.946
467.661	158.439
470.554	166.922
473.447	159.048
476.339	123.006
479.232	104.547
482.125	53.4463
485.017	113.33
487.91	91.4775
490.803	32.8662
493.696	85.875
496.588	120.562
499.481	131.751
502.374	119.144
505.266	78.6055
508.159	143.166
511.052	65.666
513.944	88.3066
516.837	95.0098
519.73	87.0059
522.623	87.8447
525.515	36.3506
528.408	29.0293
531.301	37.4775
534.193	19.0264
537.086	106.29
539.979	37.4463
542.871	14.1045
545.764	38.6377
548.657	66.8154
551.55	47.2695
554.442	6.67188
557.335	109.818
560.228	74.0478
563.12	33.0391
566.013	35.8887
568.906	107.394
571.798	13.4756
574.691	0.553711
577.584	24.4873
580.477	56.7031
583.369	7.94727
586.262	49.4551
589.155	75.6084
592.047	120.874
594.94	161.102
597.833	104.932
600.726	65.5478
603.618	62.2871
606.511	47.3818
609.404	75.2754
612.296	26.502
615.189	18.7705
618.082	1.25
620.974	16.3711
623.867	73.6494
626.76	19.7139
629.653	115.253
632.545	81.4922
635.438	70.1221
638.331	29.2129
641.223	118.173
644.116	43.1572
647.009	58.418
649.901	80.333
652.794	83.3867
655.687	51.7373
658.58	60.3906
661.472	126.268
664.365	14.8701
667.258	111.003
670.15	112.818
673.043	112.016
675.936	45.6484
678.828	71.4766
681.721	3.57324
684.614	70.4482
687.506	105.929
690.399	48.7012
693.292	54.0049
696.185	94.3389
699.077	4.28027
701.97	8.44629
704.863	13.8965
707.755	5.42481
710.648	58.0166
713.541	37.7275
716.433	5.25684
719.326	62.7451
722.219	86.2314
725.112	89.5107
728.004	33.917
730.897	54.1367
733.79	95.46
736.682	91.291
739.575	37.0762
742.468	38.583
745.361	17.8564
748.253	27.0684
751.146	44.1914
754.039	82.9736
756.931	37.1787
759.824	83.5859
762.717	21.5703
765.609	93.3389
768.502	81.6172
771.395	59.8145
774.288	80.7324
777.18	51.1211
780.073	34.5645
782.966	22.6113
785.858	1.06934
788.751	70.5195
791.644	61.6865
794.536	83.3272
797.429	119.071
800.322	94.1338
803.215	11.1094
806.107	32.7412
809	88.8711
811.893	113.341
814.785	118.059
817.678	57.2236
820.571	78.3447
823.463	119.811
826.356	116.783
829.249	63.5127
832.141	50.0117
835.034	54.3105
837.927	121.82
840.82	63.8584
843.712	123.698
846.605	102.392
849.498	112.439
852.39	38.7783
855.283	124.356
858.176	141.053
861.068	94.6641
863.961	116.917
866.854	12.4668
869.747	145.817
872.639	42.5977
875.532	18.7891
878.425	96.5322
881.317	101.436
884.21	71.2637
887.103	63.9502
889.995	61.2627
892.888	65.1338
895.781	44.8272
898.674	46.04
901.566	11.375
904.459	91.4004
907.352	49.292
910.244	82.6328
913.137	70.1348
916.03	18.0957
918.923	4.70508
921.815	89.0781
924.708	52.5654
927.601	52.5801
930.493	41.998
933.386	54.7315
936.279	47.5703
939.171	45.0039
942.064	60.9395
944.957	6.61816
947.85	41.9932
950.742	107.399
953.635	89.3027
956.528	11.0361
959.42	119.013
962.313	99.7441
965.206	77.085
968.098	62.7891
970.991	40.7031
973.884	34.9375
976.777	14.6924
979.669	41.4834
982.562	100.812
985.455	95.1465
988.347	121.592
991.24	55.2666
994.133	104.548
997.025	15.8789
999.918	30.6328
1002.81	48.2422
1005.7	45.8281
1008.6	17.9531
1011.49	36.2744
1014.38	105.035
1017.27	100.411
1020.17	85.2168
1023.06	35.8584
1025.95	90.5762
1028.85	96.2422
1031.74	79.8008
1034.63	90.9356
1037.52	53.751
1040.42	94.7773
1043.31	3.37109
1046.2	37.2715
1049.09	17.4053
1051.99	16.208
1054.88	90.1045
1057.77	59.5781
1060.66	102.818
1063.56	51.54
1066.45	85.3867
1069.34	85.4375
1072.24	6.63769
1075.13	17.7832
1078.02	39.3789
1080.91	19.0049
1083.81	49.125
1086.7	34.5635
1089.59	78.875
1092.48	23.4434
1095.38	56.5527
1098.27	44.5312
1101.16	71.7939
1104.06	101.247
1106.95	10.9033
1109.84	16.4258
1112.73	23.7959
1115.63	86.3994
1118.52	95.5576
1121.41	79.9287
1124.3	98.7041
1127.2	68.5606
1130.09	71.1074
1132.98	126.226
1135.88	100.246
1138.77	54.8525
1141.66	76.5801
1144.55	60.707
1147.45	58.4815
1150.34	109.341
1153.23	17.4775
1156.12	53.0176
1159.02	131.718
1161.91	45.0693
1164.8	116.336
1167.69	9.95801
1170.59	51.4121
1173.48	85.9951
1176.37	61.5557
1179.27	52.1641
1182.16	34.7734
1185.05	20.3955
1187.94	58.7158
1190.84	102.127
1193.73	98.3848
1196.62	60.6045
1199.51	38.6006
1202.41	88.082
1205.3	66.6856
1208.19	41.4941
1211.09	54.9951
1213.98	24.5615
1216.87	72.8945
1219.76	67.333
1222.66	68.6894
1225.55	9.86914
1228.44	1.90918
1231.33	48.2647
1234.23	49.4053
1237.12	16.4756
