Measurement: Raman, 532 nm, unoriented, Raman Data Processed
Mineral: Maghemite
Rruff sample: R140712
Ideal chemistry: (Fe^3+^_0.67_[box]_0.33_)Fe^3+^_2_O_4_
Locality: Katzenbuckel, Eberbach, Odenwald, Baden-WÃ¼rttemberg, Germany
Source: Rock Currier
Description: Black aggregate of small to fine grains. Fd3m symmetry
Raman shift (cm-1)	intensity
168.65	0
171.543	4.84701
174.436	1.10004
177.328	0.627258
180.221	1.992
183.114	4.086
186.006	5.30255
188.899	4.33585
191.792	3.39975
194.685	0.901978
197.577	2.56177
200.47	0.238647
203.363	1.54184
206.255	1.92578
209.148	0.129517
212.041	1.08237
214.933	1.09717
217.826	2.04764
220.719	1.53946
223.612	0.478119
226.504	1.57022
229.397	1.28729
232.29	0.441315
235.182	2.88385
238.075	2.96268
240.968	2.49213
243.86	2.26926
246.753	0.04306
249.646	1.47409
252.538	0.461182
255.431	1.65668
258.324	4.07425
261.217	4.52002
264.109	4.73331
267.002	5.72357
269.895	6.26611
272.787	8.43875
275.68	7.65918
278.573	10.1592
281.466	10.104
284.358	14.3896
287.251	14.3571
290.144	13.7523
293.036	11.5084
295.929	8.89475
298.822	7.91635
301.714	8.27304
304.607	7.21524
307.5	5.04874
310.392	3.24936
313.285	3.41934
316.178	4.51089
319.071	3.70706
321.963	3.83102
324.856	3.5961
327.749	2.5423
330.641	3.93558
333.534	2.01102
336.427	4.75925
339.32	2.14017
342.212	2.19919
345.105	2.31662
347.998	2.29291
350.89	2.57529
353.783	2.62454
356.676	0.610229
359.568	1.62683
362.461	0.86911
365.354	0.972839
368.247	5.23083
371.139	0.580841
374.032	0.607117
376.925	0.886047
379.817	2.02319
382.71	1.02237
385.603	2.87973
388.495	2.82114
391.388	4.58337
394.281	6.81348
397.174	6.26318
400.066	7.10086
402.959	5.5155
405.852	5.39517
408.744	4.04242
411.637	3.62445
414.53	2.90362
417.423	1.15527
420.315	0.978943
423.208	0.257202
426.101	0.32666
428.993	0.048218
431.886	0.843018
434.779	1.05316
437.671	0.227692
440.564	0.108887
443.457	0.114777
446.349	3.47583
449.242	0.983551
452.135	0.041473
455.028	0.029602
457.92	2.67215
460.813	1.55405
463.706	1.5965
466.598	1.72177
469.491	2.12067
472.384	3.30606
475.276	4.62988
478.169	4.20709
481.062	4.07358
483.955	7.92542
486.847	5.03888
489.74	5.28339
492.633	3.81165
495.525	3.17609
498.418	5.27951
501.311	5.2786
504.204	7.0184
507.096	6.23196
509.989	4.92969
512.882	6.50317
515.774	6.1441
518.667	8.69562
521.56	7.47049
524.452	7.69089
527.345	9.06036
530.238	10.3095
533.13	10.4115
536.023	9.63419
538.916	7.47644
541.809	8.17349
544.701	7.17221
547.594	4.28177
550.487	3.25745
553.379	5.95746
556.272	3.49402
559.165	0.848877
562.058	1.22772
564.95	1.02338
567.843	0.121674
570.736	0.304718
573.628	0.771973
576.521	1.17465
579.414	0.658569
582.306	1.59201
585.199	1.00708
588.092	0.447083
590.985	1.3645
593.877	0.066498
596.77	1.02835
599.663	0.391357
602.555	1.32687
605.448	2.46521
608.341	2.53601
611.233	1.31876
614.126	3.85144
617.019	3.77124
619.912	3.63113
622.804	5.14157
625.697	9.28104
628.59	10.529
631.482	13.0351
634.375	16.5955
637.268	18.6787
640.16	20.669
643.053	25.3366
645.946	27.0356
648.838	33.3271
651.731	31.6814
654.624	33.9493
657.517	35.6692
660.409	35.2043
663.302	33.4088
666.195	30.2186
669.087	27.6186
671.98	25.8302
674.873	25.1032
677.765	23.247
680.658	20.4363
683.551	18.348
686.444	18.4451
689.336	16.8574
692.229	13.6798
695.122	12.1761
698.014	9.93249
700.907	8.57687
703.8	3.73636
706.692	5.20721
709.585	2.61469
712.478	2.12433
715.371	3.05331
718.263	2.38641
721.156	1.2186
724.049	0.440155
726.941	0.785767
729.834	1.2916
732.727	1.3234
735.62	0.079437
738.512	0.119629
741.405	0.957214
744.298	0.42395
747.19	0.820648
750.083	0.35556
752.976	0.716736
755.868	0.039734
758.761	0.163544
761.654	1.85556
764.547	1.36197
767.439	0.797791
770.332	2.65533
773.225	4.57114
776.117	4.79202
779.01	3.72449
781.903	6.6777
784.795	7.38147
787.688	5.78555
790.581	7.84683
793.473	5.85678
796.366	7.48367
799.259	9.6749
802.152	8.73685
805.044	7.43109
807.937	10.2985
810.83	13.1325
813.722	9.69275
816.615	11.2662
819.508	13.678
822.4	13.1823
825.293	15.0127
828.186	14.905
831.079	16.2671
833.971	16.6031
836.864	16.0467
839.757	17.5577
842.649	17.1952
845.542	17.2899
848.435	16.9481
851.328	17.3666
854.22	17.3617
857.113	18.2931
860.006	17.2966
862.898	17.008
865.791	16.1035
868.684	16.9754
871.577	16.209
874.469	13.7746
877.362	13.7013
880.255	10.2327
883.147	9.8121
886.04	10.7478
888.933	5.97397
891.825	6.63614
894.718	6.16538
897.611	5.16244
900.504	2.54297
903.396	4.16428
906.289	3.57895
909.182	1.68585
912.074	0.427917
914.967	1.05747
917.86	0.453064
920.752	0.043304
923.645	1.75986
926.538	0.718292
929.431	0.391998
932.323	1.85135
935.216	0.297119
938.109	0.346039
941.001	1.93695
943.894	2.57694
946.787	1.49143
949.679	0.197601
952.572	0.370789
955.465	0.649902
958.357	2.35742
961.25	2.56296
964.143	2.54627
967.036	2.81384
969.928	0.379791
972.821	0.451324
975.714	2.21179
978.606	6.32101
981.499	1.49359
984.392	1.08926
987.284	2.90295
990.177	2.80371
993.07	2.53381
995.963	1.31964
998.855	2.50647
1001.75	1.52112
1004.64	2.7265
1007.53	2.92737
1010.43	3.70895
1013.32	1.85748
1016.21	3.48416
1019.1	4.09021
1022	3.96805
1024.89	5.62335
1027.78	7.43631
1030.67	8.61319
1033.57	6.96564
1036.46	6.10092
1039.35	5.98862
1042.25	7.66833
1045.14	6.45889
1048.03	5.59439
1050.92	5.94345
1053.82	6.60055
1056.71	6.60977
1059.6	5.0513
1062.49	7.28229
1065.39	4.30469
1068.28	5.04535
1071.17	4.66992
1074.07	7.12924
1076.96	4.16986
1079.85	1.83859
1082.74	4.08041
1085.64	0.71228
1088.53	2.77252
1091.42	1.04709
1094.31	2.61218
1097.21	1.05689
1100.1	1.16138
1102.99	2.93933
1105.88	1.4776
1108.78	0.162048
1111.67	1.55716
1114.56	4.16956
1117.46	2.69757
1120.35	0.815613
1123.24	1.67392
1126.13	0.276337
1129.03	1.27835
1131.92	1.18594
1134.81	0.368042
1137.7	1.25958
1140.6	0.665955
1143.49	1.68784
1146.38	1.72199
1149.28	1.43097
1152.17	1.74725
1155.06	0.972992
1157.95	1.64856
1160.85	4.01508
1163.74	2.69516
1166.63	1.85635
1169.53	2.78085
1172.42	0.553833
1175.31	2.50259
1178.2	1.22778
1181.1	2.11414
1183.99	3.59833
1186.88	1.8703
1189.77	3.24674
1192.67	2.42548
1195.56	2.76666
1198.45	2.08633
1201.34	1.85217
1204.24	4.49567
1207.13	3.82449
1210.02	5.24948
1212.91	2.00079
1215.81	2.49146
1218.7	2.15329
1221.59	1.2605
1224.49	2.45557
1227.38	1.37222
1230.27	2.11282
1233.16	3.89877
1236.06	0.464142
1238.95	0.310608
1241.84	2.42404
1244.73	0.554413
1247.63	2.83853
1250.52	2.77622
1253.41	4.29864
1256.31	1.71652
1259.2	1.21936
1262.09	1.09323
1264.98	0.981323
1267.88	4.74777
1270.77	3.38498
1273.66	2.86047
1276.56	0.695984
1279.45	1.49475
1282.34	2.21304
1285.23	2.03992
1288.12	3.52231
1291.02	1.71725
1293.91	2.55765
1296.8	1.44812
1299.7	0.303406
