Measurement: Raman, 532 nm, unoriented, Raman Data Processed
Mineral: Magnetite
Rruff sample: R140861
Ideal chemistry: Fe^2+^Fe^3+^_2_O_4_
Locality: Bon Accord, Barberton District, Mpumalanga Province, South Africa
Source: Rock Currier
Description: Dark green isolated granular or octahedral crystals, associated with yellowish-green irregular veins of nimite, minute light-green opaque grains of willemseite, reevesite as yellowish-green massive earthy vug material and limonite.
Measured chemistry: (Fe^2+^_0.82_Ni_0.18_)Fe^3+^_2.00_O_4_
Raman shift (cm-1)	intensity
175.6	0
178.493	0.047302
181.385	4.27855
184.278	6.83006
187.171	12.1885
190.064	16.1399
192.956	16.58
195.849	13.9911
198.742	13.1224
201.634	12.9037
204.527	12.0179
207.42	7.82222
210.312	3.86693
213.205	3.52502
216.098	2.64369
218.99	0.180252
221.883	1.03291
224.776	1.44504
227.669	0.767685
230.561	0.395828
233.454	1.48424
236.347	1.01177
239.239	1.9324
242.132	2.24161
245.025	0.175156
247.917	0.059937
250.81	0.274017
253.703	1.69063
256.596	2.68749
259.488	4.79594
262.381	5.28876
265.274	5.57275
268.166	5.88319
271.059	6.90367
273.952	8.05798
276.844	10.6311
279.737	10.4492
282.63	9.01384
285.523	8.51471
288.415	8.86562
291.308	8.06442
294.201	6.33778
297.093	7.08476
299.986	5.73627
302.879	6.3045
305.772	6.93481
308.664	10.2526
311.557	10.3085
314.45	13.1435
317.342	11.4943
320.235	13.8396
323.128	13.7497
326.02	15.1336
328.913	14.0727
331.806	13.993
334.699	13.6808
337.591	15.3331
340.484	15.6463
343.377	15.7576
346.269	14.6139
349.162	15.1869
352.055	13.6074
354.947	15.2695
357.84	15.1655
360.733	16.4111
363.625	18.2069
366.518	18.4279
369.411	18.2411
372.304	21.83
375.196	21.4523
378.089	22.0416
380.982	22.5697
383.874	21.4629
386.767	21.579
389.66	18.896
392.553	17.2761
395.445	13.721
398.338	12.0296
401.231	7.71895
404.123	5.70729
407.016	2.92935
409.909	0.071274
412.801	0.816818
415.694	0.095856
418.587	0.211441
421.479	1.08556
424.372	0.154556
427.265	0.598312
430.158	0.030807
433.05	0.676819
435.943	2.85042
438.836	2.43733
441.728	5.7751
444.621	6.95402
447.514	10.9489
450.406	13.688
453.299	14.4509
456.192	17.8464
459.085	19.8246
461.977	22.2412
464.87	22.533
467.763	23.362
470.655	23.7103
473.548	25.1636
476.441	25.2503
479.334	26.5123
482.226	29.4632
485.119	32.4201
488.012	28.8811
490.904	26.4043
493.797	21.5793
496.69	20.0631
499.582	16.6865
502.475	15.1671
505.368	13.8013
508.26	12.3236
511.153	12.8238
514.046	11.1225
516.939	10.4338
519.831	9.91824
522.724	11.1536
525.617	10.0946
528.509	9.40418
531.402	10.016
534.295	8.28543
537.188	6.94318
540.08	3.55075
542.973	2.28296
545.866	3.49474
548.758	2.04669
551.651	2.60608
554.544	1.99802
557.436	1.92992
560.329	0.765701
563.222	2.38281
566.115	2.13136
569.007	0.714645
571.9	0.830566
574.793	0.713394
577.685	0.100479
580.578	1.52409
583.471	0.559677
586.363	0.683105
589.256	1.23093
592.149	0.989044
595.042	1.34905
597.934	0.855301
600.827	1.49454
603.72	0.195602
606.612	1.743
609.505	0.901962
612.398	1.22124
615.29	1.45087
618.183	0.478302
621.076	0.497375
623.968	1.60626
626.861	5.78665
629.754	7.91687
632.647	11.0068
635.539	14.6602
638.432	15.9186
641.325	19.5296
644.217	20.5258
647.11	24.4919
650.003	28.3966
652.895	32.4851
655.788	35.7033
658.681	39.7621
661.574	43.6412
664.466	46.715
667.359	50.2317
670.252	52.8722
673.144	53.8708
676.037	53.9433
678.93	51.721
681.822	50.6491
684.715	46.031
687.608	44.3656
690.501	42.2966
693.393	40.3152
696.286	38.0367
699.179	38.6867
702.071	41.1469
704.964	43.6539
707.857	47.7583
710.75	51.5723
713.642	55.4656
716.535	60.0275
719.428	64.2035
722.32	63.8881
725.213	64.4847
728.106	61.1763
730.998	54.0012
733.891	47.1404
736.784	39.5059
739.677	32.1201
742.569	23.7293
745.462	17.4448
748.355	13.2289
751.247	9.2529
754.14	5.43051
757.033	1.97885
759.925	0.201263
762.818	0.980957
765.711	0.952545
768.604	0.955078
771.496	2.87894
774.389	0.906952
777.282	1.4725
780.174	0.002136
783.067	0.18985
785.96	2.33438
788.852	2.64105
791.745	2.10947
794.638	4.50162
797.53	4.9588
800.423	7.23441
803.316	6.39209
806.209	9.17883
809.101	11.3715
811.994	11.2464
814.887	12.6554
817.779	13.4348
820.672	17.6977
823.565	17.436
826.457	16.2503
829.35	16.3769
832.243	18.7728
835.136	18.2605
838.028	17.7097
840.921	21.8284
843.814	24.1538
846.706	24.1651
849.599	23.7616
852.492	25.2995
855.385	22.9768
858.277	25.8273
861.17	23.165
864.063	24.9548
866.955	22.9185
869.848	24.1389
872.741	22.056
875.633	20.7801
878.526	16.461
881.419	16.2709
884.312	13.5637
887.204	12.5627
890.097	11.3101
892.99	10.0466
895.882	7.9187
898.775	6.92629
901.668	5.23679
904.56	4.48013
907.453	2.35451
910.346	1.105
913.239	0.53891
916.131	1.11069
919.024	2.04408
921.917	0.347763
924.809	0.417664
927.702	0.340652
930.595	0.283936
933.487	0.57869
936.38	0.184235
939.273	0.88176
942.165	0.016205
945.058	0.031204
947.951	0.142838
950.844	1.27957
953.736	1.14981
956.629	0.680557
959.522	0.900833
962.414	0.156494
965.307	2.23094
968.2	3.03415
971.092	3.24422
973.985	2.95805
976.878	1.38486
979.771	3.18695
982.663	2.30618
985.556	3.70454
988.449	4.48164
991.341	4.14706
994.234	3.60564
997.127	3.89096
1000.02	3.52788
1002.91	5.38977
1005.8	2.77884
1008.7	5.01269
1011.59	5.21162
1014.48	6.56403
1017.38	5.72519
1020.27	5.55595
1023.16	5.90733
1026.05	6.85216
1028.95	7.84602
1031.84	7.9854
1034.73	8.85464
1037.62	7.70612
1040.52	9.48311
1043.41	9.57761
1046.3	10.4429
1049.19	9.33168
1052.09	8.14331
1054.98	8.47562
1057.87	6.97327
1060.77	6.04701
1063.66	4.63091
1066.55	3.90758
1069.44	3.68774
1072.34	2.07365
1075.23	3.26973
1078.12	2.29196
1081.02	2.99278
1083.91	1.01758
1086.8	1.28345
1089.69	1.52441
1092.59	0.759979
1095.48	0.623947
1098.37	0.027954
1101.26	0.857162
1104.16	0.901794
1107.05	1.59232
1109.94	0.922333
1112.84	0.627228
1115.73	0.64389
1118.62	0.089859
1121.51	0.710556
1124.41	0.617706
1127.3	0.452179
1130.19	0.155838
1133.08	0.747925
1135.98	0.716415
1138.87	1.05508
1141.76	1.00038
1144.65	1.19508
1147.55	1.86253
1150.44	0.570374
1153.33	2.12299
1156.22	0.323044
1159.12	2.82608
1162.01	2.01721
1164.9	1.61322
1167.8	1.93475
1170.69	2.50015
1173.58	2.11302
1176.47	2.62476
1179.37	1.46165
1182.26	2.11104
1185.15	1.40967
1188.05	3.44934
1190.94	2.48346
1193.83	2.86107
1196.72	1.86165
1199.62	2.34993
1202.51	1.56001
1205.4	0.396439
1208.29	1.2749
1211.19	1.40112
1214.08	2.10501
1216.97	0.361099
1219.87	0.541168
1222.76	1.54269
1225.65	0.771927
1228.54	0.96759
1231.44	0.710342
1234.33	0.111374
1237.22	1.5256
1240.11	0.310745
1243.01	1.26126
1245.9	2.26163
1248.79	1.86609
1251.68	1.90996
1254.58	1.83907
1257.47	2.97089
1260.36	1.61911
1263.26	2.93855
1266.15	1.50056
1269.04	1.10956
1271.93	0.217758
1274.83	1.79127
1277.72	2.10945
1280.61	2.96747
1283.5	1.17058
1286.4	2.36365
1289.29	0.028427
1292.18	1.29984
1295.08	1.85869
1297.97	0.39769
1300.86	0.642502
