Measurement: Raman, 780 nm, unoriented, Raman Data Processed
Mineral: Magnesioalterite
Rruff sample: R180015
Ideal chemistry: Mg_2_Fe^3+^_4_(S^6+^O_4_)_4_((C_2_)^6+^O_4_)_2_(OH)_4_17H_2_O
Locality: Near Marble Canyon, Coconino County, Arizona, USA
Source: Malcom Alter
Description: Isolated or aggregates of yellow brown prismatic crystals on petrified wood, associated with greenish prismatic alterite, gypsum, alunogen, and sulfur. Type sample.
Measured chemistry: (Mg_0.74_Zn_0.60_Fe^2+^_0.58_Mn_0.09_)Fe^3+^_4_(SO_4_)_4.0_(C_2_O_4_)_2.0_(OH)_4.0_Â·17H_2_O
Raman shift (cm-1)	intensity
95.778	0
99.1528	3.59543
102.528	0.134308
105.903	4.61327
109.277	1.60292
112.652	2.18948
116.027	2.86291
119.402	3.45021
122.777	4.30956
126.151	5.04894
129.526	3.36601
132.901	2.15205
136.276	1.5314
139.651	2.03016
143.025	0.489449
146.4	0.483414
149.775	1.11634
153.15	0.984161
156.525	1.65244
159.9	3.00429
163.274	4.20988
166.649	6.04739
170.024	8.17818
173.399	9.29599
176.774	8.31815
180.149	8.58979
183.523	5.93121
186.898	5.57203
190.273	4.20259
193.648	4.13497
197.023	3.0797
200.397	2.65642
203.772	4.85886
207.147	2.20885
210.522	1.45973
213.897	1.71026
217.272	3.0214
220.646	3.91082
224.021	4.03507
227.396	4.72473
230.771	4.45248
234.146	4.54311
237.52	3.8518
240.895	2.72643
244.27	4.29941
247.645	3.45207
251.02	3.68885
254.394	4.66113
257.769	6.44834
261.144	7.06736
264.519	7.86832
267.894	9.27509
271.269	6.26101
274.643	4.71086
278.018	3.69987
281.393	3.06158
284.768	2.44442
288.143	2.80461
291.517	1.5392
294.892	2.90096
298.267	1.40382
301.642	2.53726
305.017	2.23753
308.392	2.44382
311.766	3.46285
315.141	2.75927
318.516	2.42981
321.891	1.51167
325.266	1.44726
328.64	0.288643
332.015	0.766567
335.39	0.316013
338.765	0.222855
342.14	0.134628
345.515	0.645863
348.889	0.414261
352.264	0.502205
355.639	0.743908
359.014	0.139442
362.389	0.271973
365.764	0.369324
369.138	0.037296
372.513	0.542503
375.888	0.267509
379.263	0.617302
382.637	1.73707
386.012	1.94731
389.387	1.11626
392.762	1.88553
396.137	1.4878
399.512	1.80993
402.886	1.95094
406.261	1.97774
409.636	1.98161
413.011	3.13856
416.386	3.44753
419.76	4.59267
423.135	7.20826
426.51	6.72178
429.885	4.61183
433.26	3.77898
436.635	3.30879
440.01	4.12886
443.384	5.48745
446.759	5.2772
450.134	6.64937
453.509	7.51252
456.884	7.64133
460.258	6.83111
463.633	6.73761
467.008	5.40724
470.383	5.12279
473.758	4.12906
477.132	4.46897
480.507	4.66515
483.882	5.01368
487.257	4.29354
490.632	3.53239
494.007	2.65383
497.381	1.50659
500.756	1.09527
504.131	0.479603
507.506	0.533772
510.881	0.077644
514.255	0.74279
517.63	1.10383
521.005	2.10669
524.38	2.73544
527.755	5.20331
531.13	7.76518
534.504	9.70203
537.879	11.2492
541.254	11.9489
544.629	12.2874
548.004	8.81905
551.378	5.40387
554.753	3.28451
558.128	1.53748
561.503	0.536171
564.878	0.272148
568.253	0.990337
571.627	0.021847
575.002	0.523926
578.377	0.059467
581.752	0.495041
585.127	0.159992
588.501	2.17734
591.876	1.64097
595.251	2.91326
598.626	3.66409
602.001	5.54957
605.375	4.44897
608.75	4.5583
612.125	6.1478
615.5	5.75648
618.875	6.64345
622.25	5.41516
625.625	4.72303
628.999	2.96415
632.374	2.25794
635.749	1.33611
639.124	3.40032
642.499	2.82277
645.873	3.00805
649.248	4.09621
652.623	3.6254
655.998	3.2786
659.373	2.56648
662.747	1.94714
666.122	0.869328
669.497	0.800356
672.872	0.848234
676.247	0.751974
679.621	0.614471
682.996	0.449299
686.371	0.585695
689.746	0.248226
693.121	0.601391
696.496	0.081095
699.87	1.13374
703.245	0.729933
706.62	0.507301
709.995	0.42448
713.37	0.29508
716.745	0.599287
720.119	1.12538
723.494	1.01056
726.869	1.00202
730.244	1.46981
733.619	0.513487
736.993	0.682766
740.368	1.04893
743.743	0.913675
747.118	1.29045
750.493	0.969133
753.867	0.672201
757.242	0.118666
760.617	0.772057
763.992	0.098043
767.367	1.07689
770.742	0.316963
774.116	0.759541
777.491	0.396221
780.866	0.626787
784.241	0.182329
787.616	1.66445
790.99	1.59062
794.365	0.497168
797.74	0.309107
801.115	0.701862
804.49	0.62723
807.865	0.265369
811.239	0.45957
814.614	0.341429
817.989	0.398417
821.364	0.150063
824.739	1.01981
828.114	0.901636
831.488	1.36389
834.863	1.11906
838.238	1.30814
841.613	1.35143
844.988	1.51474
848.362	1.86717
851.737	1.27526
855.112	1.41651
858.487	0.736124
861.862	0.587318
865.236	0.2096
868.611	0.313574
871.986	0.485907
875.361	0.5012
878.736	0.483438
882.111	1.05973
885.485	0.181808
888.86	0.933332
892.235	0.004484
895.61	0.566874
898.985	0.68359
902.36	0.405573
905.734	0.45751
909.109	0.983461
912.484	1.50137
915.859	1.81912
919.234	0.621922
922.608	0.652121
925.983	0.703526
929.358	0.194794
932.733	0.303179
936.108	0.44215
939.482	0.415071
942.857	0.823469
946.232	2.25355
949.607	1.10969
952.982	2.33139
956.357	1.05606
959.731	0.234396
963.106	0.392345
966.481	1.08123
969.856	1.14675
973.231	1.38686
976.606	2.23646
979.98	4.42065
983.355	6.09758
986.73	8.33102
990.105	10.4296
993.48	13.4794
996.854	16.4076
1000.23	20.1434
1003.6	29.4873
1006.98	32.3085
1010.35	33.5408
1013.73	32.3259
1017.1	29.292
1020.48	25.5269
1023.85	21.4214
1027.23	16.0712
1030.6	9.90289
1033.98	5.99907
1037.35	2.89185
1040.73	1.28354
1044.1	1.147
1047.48	0.091536
1050.85	0.47998
1054.23	0.405344
1057.6	0.383383
1060.98	0.559597
1064.35	0.718964
1067.73	0.837845
1071.1	0.854616
1074.47	2.55769
1077.85	2.35907
1081.22	2.13639
1084.6	2.92591
1087.97	3.58799
1091.35	3.0798
1094.72	3.67413
1098.1	2.81211
1101.47	2.82729
1104.85	3.30987
1108.22	2.74173
1111.6	1.809
1114.97	1.87063
1118.35	2.27499
1121.72	2.35677
1125.1	2.30065
1128.47	1.76459
1131.85	1.55051
1135.22	1.35871
1138.6	1.54134
1141.97	0.876854
1145.35	1.04826
1148.72	0.157312
1152.1	0.747612
1155.47	0.137032
1158.85	0.107466
1162.22	0.493856
1165.6	0.540993
1168.97	0.578026
1172.35	1.17304
1175.72	0.835857
1179.1	1.2174
1182.47	0.61459
1185.84	1.05506
1189.22	2.29933
1192.59	3.27012
1195.97	3.3535
1199.34	4.01723
1202.72	3.65923
1206.09	3.68699
1209.47	3.96055
1212.84	3.97553
1216.22	4.21037
1219.59	3.40598
1222.97	3.3416
1226.34	2.71077
1229.72	2.17969
1233.09	2.11356
1236.47	1.59201
1239.84	1.7524
1243.22	0.967152
1246.59	0.845692
1249.97	0.907894
1253.34	1.04908
1256.71	0.513882
1260.09	0.724525
1263.46	0.62019
1266.84	1.03883
1270.21	0.530334
1273.59	0.619923
1276.96	0.43259
1280.34	1.78783
