Measurement: Raman, 780 nm, unoriented, Raman Data Processed
Mineral: Magnetite
Rruff sample: R140861
Ideal chemistry: Fe^2+^Fe^3+^_2_O_4_
Locality: Bon Accord, Barberton District, Mpumalanga Province, South Africa
Source: Rock Currier
Description: Dark green isolated granular or octahedral crystals, associated with yellowish-green irregular veins of nimite, minute light-green opaque grains of willemseite, reevesite as yellowish-green massive earthy vug material and limonite.
Measured chemistry: (Fe^2+^_0.82_Ni_0.18_)Fe^3+^_2.00_O_4_
Raman shift (cm-1)	intensity
211.607	0
214.5	0.340485
217.392	1.41371
220.285	1.15865
223.178	0.371307
226.07	0.431717
228.963	1.22398
231.856	3.53935
234.749	2.7986
237.641	3.19519
240.534	6.37573
243.427	6.74809
246.319	6.8045
249.212	6.92516
252.105	6.81534
254.997	4.05734
257.89	4.52032
260.783	3.45142
263.675	4.99394
266.568	2.29631
269.461	1.78424
272.354	0.068069
275.246	0.221634
278.139	0.233093
281.032	0.151367
283.924	0.613876
286.817	0.002136
289.71	1.88644
292.602	0.986313
295.495	1.26764
298.388	2.05559
301.281	3.97258
304.173	3.72931
307.066	3.86125
309.959	2.7188
312.851	4.06424
315.744	3.80408
318.637	4.2182
321.529	4.00211
324.422	5.17197
327.315	4.85672
330.207	5.27222
333.1	4.44249
335.993	4.06264
338.886	3.72966
341.778	3.01509
344.671	4.10002
347.564	4.06786
350.456	4.49826
353.349	4.81616
356.242	5.70441
359.135	6.32606
362.027	6.04726
364.92	7.74432
367.813	7.97043
370.705	8.86754
373.598	8.55576
376.491	9.27646
379.383	8.41246
382.276	9.13951
385.169	7.21967
388.062	6.87318
390.954	5.72067
393.847	4.74135
396.74	5.90508
399.632	2.00969
402.525	0.216953
405.418	0.536263
408.31	0.045403
411.203	0.32531
414.096	0.668411
416.988	0.26609
419.881	0.113304
422.774	1.06392
425.667	0.817703
428.559	0.431892
431.452	2.10972
434.345	1.48868
437.237	2.58071
440.13	2.81586
443.023	3.26485
445.915	4.69944
448.808	5.18485
451.701	5.79482
454.594	7.44605
457.486	7.40958
460.379	8.10886
463.272	8.13708
466.164	8.74246
469.057	8.3831
471.95	8.98279
474.842	7.97442
477.735	8.28696
480.628	8.60015
483.521	9.09191
486.413	8.06435
489.306	7.94049
492.199	7.75171
495.091	8.54304
497.984	6.86237
500.877	7.04833
503.769	7.03787
506.662	5.82461
509.555	4.10229
512.447	4.87245
515.34	2.74039
518.233	2.00362
521.126	2.25862
524.018	1.9164
526.911	1.6617
529.804	1.10242
532.696	1.02383
535.589	1.45834
538.482	1.15511
541.375	0.699844
544.267	1.45701
547.16	0.808968
550.053	1.99767
552.945	1.41596
555.838	1.47292
558.731	1.85643
561.623	1.49825
564.516	1.55572
567.409	0.471649
570.302	0.349159
573.194	0.701752
576.087	1.24855
578.98	0.007591
581.872	0.521156
584.765	0.328094
587.658	0.094215
590.55	0.624339
593.443	0.209808
596.336	1.11092
599.229	0.602203
602.121	0.040054
605.014	0.118958
607.907	0.019836
610.799	0.143024
613.692	0.390784
616.585	0.001526
619.477	0.24099
622.37	0.636706
625.263	1.31947
628.155	1.66301
631.048	2.79909
633.941	4.07503
636.833	3.75952
639.726	5.41652
642.619	5.2998
645.512	5.98836
648.404	5.54492
651.297	7.23708
654.19	8.77861
657.082	9.62557
659.975	9.94225
662.868	9.49686
665.76	10.3655
668.653	11.9202
671.546	11.1018
674.439	11.6422
677.331	12.0513
680.224	12.1638
683.117	10.4672
686.009	9.82116
688.902	9.09769
691.795	8.87116
694.688	8.77784
697.58	8.29715
700.473	7.91675
703.366	6.54948
706.258	7.03311
709.151	6.79895
712.044	5.6791
714.936	5.4939
717.829	4.51915
720.722	4.80324
723.614	5.13044
726.507	4.05333
729.4	2.45458
732.293	2.91383
735.185	1.87537
738.078	0.878021
740.971	0.992676
743.863	0.116592
746.756	0.402618
749.649	0.174126
752.541	0.464851
755.434	0.402809
758.327	0.484238
761.22	0.717918
764.112	0.024582
767.005	0.553528
769.898	0.526459
772.79	1.02725
775.683	0.486244
778.576	0.65757
781.468	1.05048
784.361	1.70819
787.254	2.41258
790.146	1.86932
793.039	2.13244
795.932	3.01375
798.825	3.1123
801.717	2.86305
804.61	3.69449
807.503	3.63184
810.395	3.82532
813.288	4.37721
816.181	4.14484
819.073	3.9983
821.966	5.18257
824.859	5.21925
827.752	5.13493
830.644	5.09901
833.537	5.65935
836.43	6.32964
839.322	6.74199
842.215	7.66197
845.108	7.81677
848	7.55307
850.893	7.7131
853.786	7.64471
856.679	8.0221
859.571	7.84253
862.464	7.49586
865.357	7.4644
868.249	6.92024
871.142	6.43717
874.035	6.36165
876.927	5.69221
879.82	5.23448
882.713	4.94997
885.606	4.159
888.498	4.85447
891.391	3.91828
894.284	3.74729
897.176	2.23774
900.069	2.28301
902.962	1.14679
905.854	1.32288
908.747	1.56247
911.64	0.819923
914.533	0.358688
917.425	0.413116
920.318	0.634499
923.211	1.02429
926.103	0.200302
928.996	0.273575
931.889	0.090919
934.781	0.453316
937.674	0.003227
940.567	0.345901
943.46	0.598351
946.352	0.060619
949.245	0.393375
952.138	0.57122
955.03	0.471928
957.923	0.848938
960.816	0.047207
963.708	0.404396
966.601	1.16085
969.494	0.036076
972.386	0.989235
975.279	1.1525
978.172	1.13216
981.065	0.960907
983.957	0.621208
986.85	0.667557
989.743	1.17385
992.635	1.19811
995.528	0.531178
998.421	0.650097
1001.31	0.933498
1004.21	1.0465
1007.1	1.15799
1009.99	1.17203
1012.88	1.47004
1015.78	1.66882
1018.67	1.46463
1021.56	1.65671
1024.45	2.10741
1027.35	0.94347
1030.24	2.14819
1033.13	1.96304
1036.03	2.17773
1038.92	3.00933
1041.81	2.06205
1044.7	2.34929
1047.6	2.50198
1050.49	2.16182
1053.38	1.80298
1056.28	2.07814
1059.17	2.28445
1062.06	1.72781
1064.95	1.84827
1067.85	1.32723
1070.74	1.4409
1073.63	0.885044
1076.52	1.23815
1079.42	1.82211
1082.31	0.44022
1085.2	1.17444
1088.09	0.790764
1090.99	0.973381
1093.88	0.073441
1096.77	0.551392
1099.66	0.821934
1102.56	0.140759
1105.45	0.401726
1108.34	1.10823
1111.24	0.003002
1114.13	0.215397
1117.02	0.380596
1119.91	0.922062
1122.81	0.020443
1125.7	0.931519
1128.59	0.16312
1131.48	0.321194
1134.38	0.015022
1137.27	0.269165
1140.16	0.356537
1143.06	0.531574
1145.95	0.86808
1148.84	1.29873
1151.73	0.324677
1154.63	1.36145
1157.52	0.879097
1160.41	0.571999
1163.31	0.895809
1166.2	0.820335
1169.09	0.730278
1171.98	0.631509
1174.88	0.690342
1177.77	1.47364
1180.66	0.095062
1183.55	0.799171
1186.45	1.99275
1189.34	0.622086
1192.23	0.556877
1195.12	0.956383
1198.02	1.67056
1200.91	0.590115
1203.8	0.853046
1206.69	1.5791
1209.59	0.807354
1212.48	0.640945
1215.37	1.22002
1218.27	0.892586
1221.16	1.23596
1224.05	0.123337
1226.94	1.21301
1229.84	1.06364
1232.73	0.252975
1235.62	0.695503
1238.52	0.805901
1241.41	0.780701
1244.3	0.444347
1247.19	0.917095
1250.09	0.201706
1252.98	0.705402
1255.87	0.137215
1258.76	0.741199
1261.66	0.555431
1264.55	0.331757
1267.44	0.442123
1270.33	0.427517
1273.23	0.69046
1276.12	0.791164
1279.01	1.09958
1281.9	0.919682
1284.8	0
