Measurement: Raman, 780 nm, unoriented, Raman Data Processed
Mineral: Metavivianite
Rruff sample: R130545
Ideal chemistry: Fe^2+^Fe^3+^_2_(PO_4_)_2_(OH)_2_6H_2_O
Locality: Rapid Creek, Yukon Territory, Canada
Source: Rock Currier
Description: Dull olive-green platy mass, associated with masses of brighter green acicular gormanite on brown siderite. Metavivianite is twinned around [1 -1 0].
Raman shift (cm-1)	intensity
122.295	0
125.67	1.071
129.044	2.30736
132.419	1.81679
135.794	2.45441
139.169	4.66786
142.544	3.13361
145.918	3.11725
149.293	1.88231
152.668	1.89253
156.043	2.42725
159.418	2.21542
162.792	3.14047
166.167	0.19313
169.542	0.133682
172.917	0.079132
176.292	1.097
179.667	0.182129
183.041	0.226303
186.416	0.430145
189.791	1.38925
193.166	2.87608
196.541	2.60049
199.916	3.56595
203.29	4.11003
206.665	3.22081
210.04	3.46529
213.415	4.13486
216.79	3.73827
220.164	3.88565
223.539	4.51912
226.914	3.32176
230.289	4.69893
233.664	4.06189
237.038	4.4727
240.413	4.4095
243.788	5.20276
247.163	4.15135
250.538	4.01794
253.913	3.64412
257.287	3.89088
260.662	4.20064
264.037	3.3947
267.412	3.55667
270.787	2.84345
274.161	2.35434
277.536	2.72591
280.911	3.18987
284.286	2.28768
287.661	2.1651
291.036	2.03127
294.41	1.46646
297.785	2.43088
301.16	2.49657
304.535	2.81607
307.91	2.64675
311.284	2.68688
314.659	2.68264
318.034	2.29479
321.409	2.22484
324.784	2.71521
328.159	2.1619
331.533	1.56339
334.908	1.08031
338.283	1.62345
341.658	0.476784
345.033	0.748383
348.408	0.318581
351.782	0.182617
355.157	0.738625
358.532	0.113319
361.907	0.00808
365.282	0.460327
368.656	0.000175
372.031	0.01741
375.406	0.134247
378.781	0.069359
382.156	0.045723
385.531	0.573021
388.905	1.41373
392.28	1.20649
395.655	1.30246
399.03	2.7406
402.405	2.75329
405.779	3.52493
409.154	4.08918
412.529	4.5755
415.904	4.40593
419.279	4.99376
422.654	5.46483
426.028	6.07137
429.403	5.74824
432.778	5.47851
436.153	5.84325
439.528	6.05899
442.902	6.31728
446.277	6.06246
449.652	7.31935
453.027	6.82526
456.402	7.40271
459.776	7.66868
463.151	8.34823
466.526	9.20483
469.901	8.73085
473.276	9.26012
476.651	8.18893
480.025	7.77258
483.4	7.68121
486.775	7.25165
490.15	6.7446
493.525	6.30833
496.899	5.19531
500.274	4.87624
503.649	3.57635
507.024	3.08628
510.399	2.01973
513.774	1.51144
517.148	0.848999
520.523	0.310173
523.898	0.477997
527.273	0.335304
530.648	0.601692
534.022	0.704906
537.397	0.182575
540.772	0.029499
544.147	0.655411
547.522	1.30158
550.896	1.27343
554.271	2.24271
557.646	2.80957
561.021	2.49716
564.396	2.6907
567.771	3.5973
571.145	3.2091
574.52	3.55001
577.895	4.41619
581.27	4.09824
584.645	3.93864
588.019	4.09883
591.394	2.94272
594.769	3.69664
598.144	3.2383
601.519	3.26603
604.894	3.53306
608.268	3.62638
611.643	3.73948
615.018	3.39141
618.393	2.9253
621.768	3.60463
625.143	2.9329
628.517	3.18061
631.892	3.54249
635.267	3.14062
638.642	4.20753
642.017	4.05213
645.391	4.08857
648.766	4.1079
652.141	3.12838
655.516	3.04868
658.891	2.52246
662.265	2.07118
665.64	1.9889
669.015	1.76616
672.39	1.11576
675.765	1.29066
679.14	1.21553
682.514	0.593548
685.889	0.110611
689.264	0.19725
692.639	0.262165
696.014	0.041477
699.389	0.0061
702.763	0.37706
706.138	0.36491
709.513	0.133636
712.888	0.640682
716.263	0.844296
719.637	0.314274
723.012	0.277355
726.387	0.51609
729.762	0.990387
733.137	0.786705
736.511	0.974663
739.886	0.970333
743.261	0.840984
746.636	0.667381
750.011	0.712696
753.386	0.524849
756.76	0.691238
760.135	0.603893
763.51	0.493298
766.885	0.599678
770.26	0.174023
773.635	0.668133
777.009	0.381824
780.384	0.555267
783.759	0.597912
787.134	0.667023
790.509	0.509304
793.883	0.458115
797.258	1.22441
800.633	0.89901
804.008	0.804073
807.383	0.876129
810.757	0.898403
814.132	1.20316
817.507	1.33561
820.882	1.31656
824.257	1.14167
827.631	1.60602
831.006	1.40657
834.381	1.75317
837.756	2.01648
841.131	1.91217
844.506	2.32207
847.88	2.25281
851.255	2.76584
854.63	2.57403
858.005	2.10292
861.38	1.95863
864.755	1.57239
868.129	1.43169
871.504	1.15975
874.879	1.28007
878.254	0.613396
881.629	0.525276
885.003	0.527466
888.378	0.25462
891.753	0.159927
895.128	0.229633
898.503	0.255787
901.878	0.553814
905.252	0.118805
908.627	0.081989
912.002	0.055756
915.377	0.086472
918.752	0.521767
922.126	0.494301
925.501	1.23229
928.876	2.18238
932.251	1.91758
935.626	2.67265
939	2.99907
942.375	3.59985
945.75	4.20728
949.125	4.36953
952.5	5.06291
955.875	5.4668
959.249	5.85773
962.624	6.18657
965.999	7.39123
969.374	6.66119
972.749	7.57304
976.124	7.62084
979.498	7.32479
982.873	8.04088
986.248	8.01609
989.623	7.9018
992.998	7.96545
996.372	8.5307
999.747	8.10665
1003.12	7.47168
1006.5	7.88931
1009.87	8.11549
1013.25	7.30637
1016.62	7.26652
1020	7.62803
1023.37	7.18963
1026.75	7.1185
1030.12	5.81384
1033.49	6.21377
1036.87	5.65226
1040.24	5.66568
1043.62	5.40914
1046.99	4.78976
1050.37	4.35855
1053.74	3.90351
1057.12	3.28155
1060.49	3.28765
1063.87	2.67111
1067.24	2.42826
1070.62	1.61171
1073.99	1.6584
1077.37	1.36874
1080.74	1.02468
1084.12	0.743446
1087.49	0.113903
1090.87	0.143764
1094.24	0.040791
1097.62	0.216442
1100.99	0.648518
1104.37	0.275795
1107.74	0.069874
1111.12	0.018486
1114.49	0.082916
1117.87	0.265251
1121.24	0.12471
1124.62	0.035858
1127.99	0.430428
1131.37	0.197609
1134.74	0.408825
1138.12	0.949795
1141.49	0.324707
1144.86	0.741091
1148.24	0.994915
1151.61	1.25621
1154.99	0.554615
1158.36	0.726286
1161.74	0.949692
1165.11	1.07282
1168.49	0.86051
1171.86	1.4209
1175.24	0.851906
1178.61	0.979113
1181.99	0.785137
1185.36	0.268387
1188.74	0.536499
1192.11	0.412376
1195.49	0.625454
1198.86	0.646765
1202.24	0.294683
1205.61	0.757429
1208.99	0.305706
1212.36	0.519564
1215.73	0.173773
1219.11	0.355629
1222.48	0.519464
1225.86	0.423922
1229.23	0.501482
1232.61	0.767971
1235.98	0.633503
1239.36	0.863905
1242.73	0.874281
1246.11	1.01696
1249.48	0.737871
1252.86	0.754269
1256.23	0.354761
1259.61	0.719847
1262.98	0.333408
1266.36	0.458776
1269.73	0.078058
1273.11	0.047346
1276.48	0.467682
1279.86	0.041943
