Measurement: Raman, 532 nm, unoriented, Raman Data Processed
Mineral: Metalodevite
Rruff sample: R130693
Ideal chemistry: Zn^2+^(U^6+^O_2_)_2_(As^5+^O_4_)_2_10H_2_O
Locality: Riviéral, Lodève, Hérault, Languedoc-Roussillon, France
Source: Rock Currier
Description: Aggregates of pale yellow-green platy crystals
Raman shift (cm-1)	intensity
145.026	0
147.919	1414
150.812	3662
153.705	3170
156.597	69
159.49	1129.25
162.383	3651
165.275	4490.25
168.168	4302.25
171.061	8439
173.953	14286
176.846	23047
179.739	29699.2
182.632	36321.2
185.524	34805.5
188.417	37417.5
191.31	40394.2
194.202	34917.5
197.095	28150
199.988	20336
202.881	12702
205.773	5911.5
208.666	4185.25
211.559	3970.5
214.451	6233.75
217.344	3927.25
220.237	4744.5
223.129	695.75
226.022	29.75
228.915	2332
231.808	7252.5
234.7	15428
237.593	19489.5
240.486	17044.5
243.378	9745.75
246.271	6527.25
249.164	8441.25
252.056	13729.2
254.949	13871.8
257.842	16031.8
260.735	15192.2
263.627	14960.8
266.52	16463.5
269.413	9455.5
272.305	11517
275.198	11446.2
278.091	13534.2
280.983	10169.5
283.876	13995.2
286.769	14287
289.661	8505.5
292.554	94.5
295.447	628.25
298.34	633
301.232	5845.25
304.125	7146.75
307.018	6222.25
309.91	3293.5
312.803	4561.75
315.696	12964
318.589	16708.8
321.481	22171
324.374	18804.5
327.267	11892
330.159	6290.75
333.052	8403
335.945	8299
338.837	6552.25
341.73	4833
344.623	2867.25
347.515	4484.25
350.408	4238.25
353.301	5946.25
356.194	2703.75
359.086	618.25
361.979	982.25
364.872	5122.75
367.764	5646.75
370.657	6677.75
373.55	3322.25
376.442	5339.75
379.335	4251.5
382.228	3017.25
385.121	4450.5
388.013	6722.5
390.906	9681.5
393.799	8865.75
396.691	12505.5
399.584	12804.8
402.477	10617
405.37	1915.25
408.262	2074.75
411.155	4753.25
414.048	6507.5
416.94	3188.25
419.833	2148.25
422.726	2652.5
425.618	529.75
428.511	4893.75
431.404	4499.5
434.296	2806.5
437.189	1541.75
440.082	2955.25
442.975	1686
445.867	6617.5
448.76	8632
451.653	10625.8
454.545	13359.2
457.438	17366.8
460.331	16621.2
463.224	12837.5
466.116	7862.75
469.009	8026.25
471.902	11650.5
474.794	13198.5
477.687	10750.5
480.58	7099
483.473	6931
486.365	12001.2
489.258	18078.5
492.151	19815
495.043	14274
497.936	14331.5
500.829	20055.2
503.721	24301.2
506.614	25516
509.507	26010.2
512.399	25422.2
515.292	26552
518.185	26687.8
521.078	22493.2
523.97	16604.2
526.863	15983
529.756	21844
532.648	23434
535.541	16966.5
538.434	11713
541.327	7188
544.219	7082.25
547.112	5606.25
550.005	2144
552.897	3611.75
555.79	5617
558.683	1840.5
561.575	2958.75
564.468	4631.25
567.361	4059.75
570.254	2727.5
573.146	970.5
576.039	2444.5
578.932	6265.5
581.824	5050.75
584.717	15214.2
587.61	13593.2
590.502	16739
593.395	19741
596.288	23392.5
599.181	34488.5
602.073	43327.5
604.966	51341
607.859	60406.8
610.751	66495.5
613.644	72576.2
616.537	80052.5
619.429	89062.8
622.322	93003.2
625.215	98599
628.107	107162
631	115385
633.893	119723
636.786	119164
639.678	117251
642.571	120816
645.464	123483
648.356	126663
651.249	129850
654.142	125383
657.034	120045
659.927	108271
662.82	99144
665.713	88381.8
668.605	86563
671.498	78476.2
674.391	68036.2
677.283	56779.5
680.176	52166
683.069	42084
685.962	38217.5
688.854	33038
691.747	23917.2
694.64	21462.8
697.532	19591
700.425	10453
703.318	2972.75
706.21	1634.5
709.103	294.5
711.996	2996.25
714.889	1751
717.781	1572.75
720.674	2203.75
723.567	95.25
726.459	5509
729.352	5769
732.245	9763.25
735.137	14584
738.03	24152.2
740.923	25253.2
743.816	26694.2
746.708	26488.5
749.601	32658.5
752.494	25662.5
755.386	26737.2
758.279	24098
761.172	28000.2
764.064	28973
766.957	28788.2
769.85	30564.5
772.742	34861.5
775.635	35703.2
778.528	38904.5
781.421	41091
784.313	41592.2
787.206	39897.8
790.099	51148
792.991	67157.5
795.884	89249.8
798.777	124674
801.669	170668
804.562	235836
807.455	310696
810.348	345521
813.24	315000
816.133	278495
819.026	241933
821.918	155478
824.811	84018.8
827.704	44344.5
830.597	24514
833.489	14040.8
836.382	4755.25
839.275	5185.5
842.167	675.25
845.06	2551
847.953	3079.5
850.846	428.5
853.738	1592.25
856.631	3209
859.524	365
862.416	6052
865.309	9153.75
868.202	16312.2
871.094	16606.8
873.987	13500.5
876.88	14234.2
879.773	22105
882.665	29192.5
885.558	30985.8
888.451	29897.5
891.343	32824.8
894.236	39368.5
897.129	45931.8
900.021	46140.2
902.914	43185.9
905.807	35164
908.699	30988.8
911.592	25241.8
914.485	21253.4
917.378	17738.8
920.27	16593.1
923.163	18844.9
926.056	19628.2
928.948	18481.1
931.841	16790.9
934.734	11606.4
937.626	11415.9
940.519	12828.5
943.412	14568
946.305	10253.8
949.197	7758.5
952.09	6344.5
954.983	8838.88
957.875	10904
960.768	13135.6
963.661	10828.4
966.553	8783.88
969.446	3768.62
972.339	5866.88
975.232	8074.38
978.124	9312.12
981.017	5981.12
983.91	5967.12
986.802	6255.25
989.695	5762.62
992.588	4281.62
995.481	1770.75
998.373	460.875
1001.27	1562.12
1004.16	140.875
1007.05	964.625
1009.94	927.5
1012.84	2737.12
1015.73	3422.5
1018.62	2003.12
1021.51	89.5
1024.41	632.375
1027.3	1829.12
1030.19	1787.38
1033.09	3522.88
1035.98	327.25
1038.87	307.625
1041.76	2289
1044.66	4449.88
1047.55	3909.75
1050.44	3634.88
1053.33	2425.38
1056.23	1637.62
1059.12	2071.5
1062.01	4293.25
1064.9	2376.88
1067.8	1991.75
1070.69	1693.75
1073.58	2712.75
1076.48	2809.12
1079.37	1356.38
1082.26	1090.12
1085.15	2165.75
1088.05	3023.88
1090.94	2733.75
1093.83	1861.75
1096.72	1148.25
1099.62	1238.12
1102.51	645.125
1105.4	449.75
1108.3	94.125
1111.19	649.5
1114.08	1477.62
1116.97	1500.75
1119.87	428.25
1122.76	1620.88
1125.65	537
1128.55	283.375
1131.44	960.75
1134.33	1180.75
1137.22	2682.38
1140.12	4107.25
1143.01	2618.88
1145.9	1704.5
1148.79	1697.5
1151.69	3235.12
1154.58	3512.88
1157.47	3867
1160.36	5175
1163.26	5612.88
1166.15	5523.5
1169.04	5447.38
1171.93	3724.5
1174.83	4354
1177.72	3515.25
1180.61	4932.5
1183.51	4289.38
1186.4	5986.12
1189.29	6399.38
1192.18	6784.25
1195.08	7479.62
1197.97	5156.25
1200.86	4183.38
1203.76	4851.5
1206.65	4297.75
1209.54	4925.88
1212.43	3512.25
1215.33	3644.5
1218.22	3960.38
1221.11	3984.62
1224	4161
1226.9	1752.75
1229.79	2048.38
1232.68	1212.75
1235.58	396.75
1238.47	10.25
1241.36	692
1244.25	215.75
1247.14	2150.5
1250.04	5411.25
1252.93	5142.88
1255.82	6966.38
1258.72	6195.12
1261.61	6008.12
1264.5	5566.25
1267.39	8543.12
1270.29	5932.62
1273.18	4440.88
1276.07	2135.12
1278.96	3080.25
1281.86	3456.25
1284.75	4009.5
1287.64	4991.25
1290.54	3450.12
1293.43	3291.75
1296.32	188.75
1299.21	400.25
