Measurement: Raman, 780 nm, unoriented, Raman Data Processed
Mineral: Montgomeryite
Rruff sample: R140664
Ideal chemistry: Ca_4_MgAl_4_(PO_4_)_6_(OH)_4_12H_2_O
Locality: Foote Mineral Company mine, Kings Mountain, North Carolina, USA
Source: Rock Currier
Description: Radial aggregates of colorless, bladed to platy crystals
Raman shift (cm-1)	intensity
153.632	0
156.525	1.52277
159.418	5.39386
162.31	9.02472
165.203	7.08704
168.096	2.83758
170.988	0.036072
173.881	2.35254
176.774	3.77704
179.667	4.55572
182.559	2.92346
185.452	7.19568
188.345	5.06934
191.237	6.55225
194.13	6.08807
197.023	6.03705
199.916	2.41644
202.808	2.7085
205.701	0.666138
208.594	1.39526
211.486	0.492615
214.379	0.214172
217.272	3.9942
220.164	3.74725
223.057	6.6889
225.95	5.95947
228.843	8.91302
231.735	9.76965
234.628	13.1496
237.521	12.8453
240.413	10.6837
243.306	9.90533
246.199	10.4562
249.091	7.48096
251.984	7.11462
254.877	5.54126
257.769	3.89081
260.662	4.68707
263.555	7.875
266.448	6.91077
269.34	5.94202
272.233	8.44482
275.126	4.25568
278.018	7.29315
280.911	9.11932
283.804	10.1967
286.697	9.59112
289.589	16.3126
292.482	15.2914
295.375	14.0925
298.267	16.1232
301.16	7.73712
304.053	5.22229
306.945	6.14606
309.838	4.19983
312.731	3.35449
315.623	2.62683
318.516	4.01782
321.409	3.82086
324.302	0.37915
327.194	2.54059
330.087	2.26782
332.98	2.10803
335.873	2.16187
338.765	2.32178
341.658	1.74323
344.551	0.90979
347.443	5.05243
350.336	1.34259
353.229	2.4173
356.121	3.12732
359.014	3.75934
361.907	2.50208
364.8	5.61145
367.692	4.08862
370.585	3.59717
373.478	1.52838
376.37	4.29712
379.263	9.58813
382.156	10.4485
385.048	14.4997
387.941	18.9156
390.834	20.8849
393.726	18.605
396.619	13.3552
399.512	11.1009
402.405	4.27112
405.297	2.42206
408.19	3.08447
411.083	0.533691
413.975	0.43927
416.868	1.08203
419.761	4.41772
422.654	0.855103
425.546	1.52631
428.439	5.9342
431.332	1.14105
434.224	5.45428
437.117	9.72601
440.01	12.4018
442.902	10.0022
445.795	9.98621
448.688	15.9411
451.58	18.807
454.473	19.5812
457.366	23.2928
460.259	20.4287
463.151	13.7585
466.044	13.5106
468.937	14.3095
471.829	12.2148
474.722	14.1459
477.615	14.1577
480.507	8.79694
483.4	9.961
486.293	13.2709
489.186	9.97797
492.078	11.0663
494.971	11.9065
497.864	13.6627
500.756	15.8747
503.649	19.8621
506.542	26.5862
509.435	27.0678
512.327	25.9066
515.22	18.4335
518.112	14.9844
521.005	12.1396
523.898	13.2423
526.791	8.11194
529.683	8.86346
532.576	7.7041
535.469	6.02747
538.361	5.36761
541.254	3.5697
544.147	5.89313
547.04	3.03485
549.932	2.52167
552.825	0.691284
555.718	0.033508
558.61	0.630859
561.503	1.96137
564.396	1.32526
567.288	3.36908
570.181	1.73914
573.074	4.21112
575.967	9.0448
578.859	10.2849
581.752	13.1208
584.645	16.2482
587.537	15.1793
590.43	16.8673
593.323	17.3873
596.216	16.5415
599.108	15.3324
602.001	16.0583
604.894	12.7555
607.786	11.2013
610.679	8.3374
613.572	6.76691
616.464	3.83344
619.357	3.61389
622.25	2.39148
625.143	0.095093
628.035	1.01166
630.928	3.69348
633.821	6.99689
636.713	7.79504
639.606	5.72485
642.499	4.7489
645.391	0.830017
648.284	2.86035
651.177	1.60266
654.069	7.80603
656.962	2.33972
659.855	0.108032
662.748	7.4718
665.64	1.91931
668.533	0.765015
671.426	0.427612
674.318	2.00244
677.211	0.355347
680.104	0.833435
682.996	1.34265
685.889	0.058411
688.782	0.878967
691.675	2.15985
694.567	1.59668
697.46	1.03516
700.353	0.104919
703.245	1.07172
706.138	0.100586
709.031	0.487915
711.923	2.46735
714.816	0.622498
717.709	3.60467
720.602	1.58313
723.494	2.75678
726.387	2.31274
729.28	4.65137
732.172	2.06195
735.065	0.709534
737.958	1.69727
740.851	1.37115
743.743	2.45209
746.636	1.39337
749.529	6.0575
752.421	1.00745
755.314	1.84631
758.207	0.664551
761.099	2.92078
763.992	2.59705
766.885	3.35767
769.778	0.55188
772.67	1.04736
775.563	1.09534
778.456	2.16846
781.348	1.89587
784.241	2.65869
787.134	0.581421
790.026	0.491882
792.919	3.22467
795.812	3.37946
798.705	3.81781
801.597	2.90485
804.49	4.81683
807.383	4.31036
810.275	4.90613
813.168	5.11859
816.061	5.87115
818.953	4.79394
821.846	6.00793
824.739	6.29059
827.631	6.41553
830.524	3.94739
833.417	6.1734
836.31	6.14304
839.202	6.54981
842.095	6.90762
844.988	6.66754
847.88	5.90683
850.773	6.98871
853.666	6.54816
856.558	3.45203
859.451	6.42068
862.344	4.75476
865.237	3.12103
868.129	5.36502
871.022	4.90454
873.915	1.53946
876.807	0.909546
879.7	2.07739
882.593	1.67804
885.486	1.27847
888.378	4.32883
891.271	3.95789
894.164	0.392181
897.056	0.375183
899.949	0.320496
902.842	0.981293
905.734	0.164734
908.627	1.5022
911.52	0.451141
914.413	0.3992
917.305	0.580536
920.198	2.49338
923.091	3.00854
925.983	3.85931
928.876	2.99832
931.769	2.7999
934.661	2.86404
937.554	2.74213
940.447	0.900726
943.34	0.417816
946.232	0.909393
949.125	1.24191
952.018	2.2681
954.91	0.096039
957.803	4.56998
960.696	4.73602
963.588	5.8942
966.481	8.69513
969.374	13.1832
972.266	18.4664
975.159	21.5213
978.052	25.1793
980.945	25.4841
983.837	26.2707
986.73	20.6484
989.623	18.289
992.515	22.3591
995.408	26.7223
998.301	35.367
1001.19	44.7213
1004.09	57.6429
1006.98	61.7805
1009.87	67.4012
1012.76	68.3376
1015.66	65.6931
1018.55	56.3422
1021.44	41.4951
1024.34	27.5272
1027.23	17.669
1030.12	11.3667
1033.01	10.3814
1035.91	7.12235
1038.8	3.61575
1041.69	3.21265
1044.58	1.35278
1047.48	0.095795
1050.37	0.513153
1053.26	0.216064
1056.15	0.086121
1059.05	0.988922
1061.94	0.579224
1064.83	0.747955
1067.73	0.304199
1070.62	0.162811
1073.51	1.02435
1076.4	2.46738
1079.3	4.67706
1082.19	5.22379
1085.08	6.11536
1087.97	4.46918
1090.87	4.31763
1093.76	4.54987
1096.65	2.65436
1099.55	1.85297
1102.44	0.06723
1105.33	1.6727
1108.22	2.08179
1111.12	2.78375
1114.01	1.71463
1116.9	3.99493
1119.79	4.47464
1122.69	6.31427
1125.58	4.79394
1128.47	4.54181
1131.37	2.68219
1134.26	1.07217
1137.15	4.56909
1140.04	3.70187
1142.94	4.46271
1145.83	5.88647
1148.72	5.22144
1151.61	6.70221
1154.51	3.79681
1157.4	3.38446
1160.29	3.14658
1163.18	0.763214
1166.08	0.015167
1168.97	0.024902
1171.86	1.54245
1174.76	0.97113
1177.65	7.2048
1180.54	2.74243
1183.43	1.55454
1186.33	3.51331
1189.22	1.78668
1192.11	2.39267
1195.01	0.676819
1197.9	0.056
1200.79	0.36203
1203.68	0.364746
1206.58	0.556305
1209.47	0.560211
1212.36	2.37802
1215.25	1.63605
1218.15	1.19568
1221.04	2.33106
1223.93	3.07498
1226.82	3.01947
1229.72	2.17148
1232.61	1.16086
1235.5	1.66367
1238.39	1.66772
1241.29	0.737335
1244.18	4.5506
1247.07	2.66986
1249.97	1.90933
1252.86	3.62131
1255.75	3.48334
1258.64	3.05475
1261.54	2.93665
1264.43	0.25592
1267.32	0.12265
1270.21	0.334991
1273.11	2.79434
1276	4.48227
1278.89	0.991241
1281.79	0.333344
