Measurement: Raman, 780 nm, unoriented, Raman Data Processed
Mineral: Moorhouseite
Rruff sample: R130745
Ideal chemistry: Co^2+^S^6+^O_4_6H_2_O
Locality: Bou Azer, Tazenakht, Ouarzazate Province, Souss-Massa-Dra√¢ Region, Morocco
Source: Donald Doell
Description: Light-pinkish fine grains, associated with pink or dark pink spherocobaltite.
Raman shift (cm-1)	intensity
93.8499	0
97.2247	1.48047
100.6	13.8877
103.974	1.84814
107.349	16.9175
110.724	0.54834
114.099	4.4043
117.474	5.53467
120.848	1.33252
124.223	5.12402
127.598	9.40332
130.973	4.01758
134.348	0.399902
137.722	1.00147
141.097	1.33203
144.472	1.00586
147.847	6.06055
151.222	19.4756
154.597	34.5557
157.971	25.772
161.346	33.9199
164.721	22.9927
168.096	13.749
171.471	14.418
174.845	18.9111
178.22	11.0625
181.595	18.4121
184.97	13.0737
188.345	11.4365
191.72	14.6855
195.094	16.0273
198.469	8.12354
201.844	16.6289
205.219	12.6611
208.594	14.0654
211.969	19.6392
215.343	19.7275
218.718	24.7637
222.093	35.3071
225.468	22.6255
228.843	26.2373
232.217	22.9414
235.592	21.7871
238.967	8.74756
242.342	4.61133
245.717	18.1846
249.091	4.75781
252.466	5.25244
255.841	8.39795
259.216	12.6372
262.591	12.0625
265.966	18.2124
269.34	9.48633
272.715	9.4248
276.09	18.3618
279.465	26.252
282.84	15.1631
286.214	6.23975
289.589	3.42139
292.964	4.22949
296.339	6.71191
299.714	0.89502
303.089	1.03711
306.463	6.33545
309.838	2.98584
313.213	5.62354
316.588	0.503418
319.963	7.26025
323.337	9.68994
326.712	12.3931
330.087	14.314
333.462	13.9819
336.837	4.01074
340.212	0.006836
343.586	5.04932
346.961	15.2241
350.336	11.1167
353.711	8.46973
357.086	2.31787
360.46	4.96387
363.835	9.7876
367.21	12.2734
370.585	4.00146
373.96	7.21289
377.334	2.67334
380.709	5.23389
384.084	2.45312
387.459	1.85205
390.834	4.86816
394.209	1.04394
397.583	0.586426
400.958	2.07715
404.333	11.7012
407.708	13.6768
411.083	13.5781
414.457	15.5
417.832	31.9961
421.207	38.3774
424.582	40.7402
427.957	40.4678
431.332	23.5574
434.706	27.332
438.081	28.9731
441.456	34.4185
444.831	28.814
448.206	23.5237
451.58	35.9426
454.955	43.5713
458.33	49.4971
461.705	42.1494
465.08	37.6384
468.455	41.0688
471.829	38.3711
475.204	43.1035
478.579	49.2024
481.954	46.7593
485.329	50.6301
488.704	60.5227
492.078	60.7568
495.453	58.7747
498.828	49.0625
502.203	43.3694
505.577	35.6958
508.952	32.0154
512.327	23.1726
515.702	12.3735
519.077	13.709
522.452	6.05176
525.826	7.94507
529.201	5.16138
532.576	9.60327
535.951	1.17358
539.326	8.52173
542.701	5.14209
546.075	4.16797
549.45	7.97046
552.825	3.41504
556.2	3.09839
559.575	3.97022
562.949	0.141357
566.324	1.51978
569.699	0.895752
573.074	7.64526
576.449	13.8257
579.823	9.5481
583.198	14.625
586.573	16.2473
589.948	16.1069
593.323	16.8791
596.698	26.6028
600.072	35.5935
603.447	41.1841
606.822	50.3037
610.197	36.6714
613.572	33.2549
616.947	35.1516
620.321	34.7642
623.696	34.4375
627.071	23.5146
630.446	25.0703
633.821	21.4458
637.195	24.1284
640.57	17.0117
643.945	14.1751
647.32	5.84741
650.695	5.92505
654.069	9.40576
657.444	13.8337
660.819	12.8533
664.194	11.855
667.569	8.34546
670.944	8.94531
674.318	1.82544
677.693	11.8174
681.068	2.24683
684.443	3.59473
687.818	9.14014
691.192	14.9011
694.567	8.80688
697.942	6.94336
701.317	4.89795
704.692	0.77002
708.067	8.6897
711.441	2.19653
714.816	7.19971
718.191	0.068848
721.566	1.23999
724.941	3.49219
728.316	10.3584
731.69	0.116211
735.065	2.59912
738.44	2.72241
741.815	8.48218
745.19	6.70264
748.564	1.26709
751.939	3.58911
755.314	3.29956
758.689	3.2644
762.064	6.98999
765.438	1.80249
768.813	1.52002
772.188	0.17749
775.563	2.06787
778.938	4.68262
782.313	5.94336
785.687	4.06177
789.062	6.08814
792.437	10.2163
795.812	9.8269
799.187	7.78296
802.562	7.68604
805.936	15.2852
809.311	14.7544
812.686	18.1526
816.061	9.33252
819.436	9.67896
822.81	14.4209
826.185	14
829.56	7.46069
832.935	17.8723
836.31	20.3748
839.684	18.6558
843.059	18.6072
846.434	12.4221
849.809	17.6043
853.184	12.5339
856.558	13.3691
859.933	17.6069
863.308	13.8481
866.683	8.97656
870.058	11.8264
873.433	13.4004
876.807	8.43213
880.182	11.3062
883.557	14.4163
886.932	9.80737
890.307	5.86548
893.682	0.449219
897.056	0.158447
900.431	5.51196
903.806	8.93384
907.181	8.00488
910.556	2.2168
913.93	3.17944
917.305	1.04565
920.68	0.50293
924.055	4.5686
927.43	11.3101
930.804	5.98413
934.179	6.02759
937.554	3.31641
940.929	1.32349
944.304	0.510254
947.679	4.25244
951.053	3.58081
954.428	2.57935
957.803	8.03052
961.178	2.30591
964.553	0.159912
967.928	6.03735
971.302	7.70142
974.677	6.05566
978.052	15.8003
981.427	29.1128
984.802	37.2183
988.176	55.8276
991.551	85.1592
994.926	84.0593
998.301	79.3376
1001.68	61.8828
1005.05	60.2578
1008.42	56.5867
1011.8	65.9268
1015.17	82.4221
1018.55	89.947
1021.92	111.162
1025.3	105.585
1028.67	102.463
1032.05	78.9434
1035.42	59.7903
1038.8	39.7266
1042.17	31.6267
1045.55	20.9114
1048.92	14.9883
1052.3	13.552
1055.67	14.721
1059.05	20.2527
1062.42	19.1228
1065.8	12.4983
1069.17	11.74
1072.55	10.564
1075.92	9.49487
1079.3	10.5666
1082.67	11.5076
1086.05	11.7749
1089.42	5.97925
1092.8	0.033691
1096.17	2.18652
1099.55	7.08228
1102.92	3.19922
1106.3	3.49878
1109.67	1.96802
1113.05	4.19409
1116.42	4.12402
1119.79	0.156738
1123.17	1.96802
1126.54	8.67358
1129.92	9.76318
1133.29	9.03979
1136.67	5.16675
1140.04	13.7849
1143.42	8.13818
1146.79	7.25317
1150.17	6.39185
1153.54	7.89917
1156.92	14.1025
1160.29	11.3799
1163.67	16.6919
1167.04	15.0063
1170.42	17.7268
1173.79	16.8994
1177.17	13.8174
1180.54	15.4341
1183.92	9.18384
1187.29	14.1909
1190.66	11.5347
1194.04	8.4917
1197.41	7.4585
1200.79	11.2893
1204.16	10.5376
1207.54	6.66675
1210.91	8.99976
1214.29	7.60522
1217.66	7.08276
1221.04	11.2957
1224.41	0.328125
1227.79	4.85693
1231.16	0.264893
1234.54	2.29346
1237.91	1.45874
1241.29	1.46728
1244.66	4.0625
1248.04	3.13232
1251.41	1.77246
1254.79	7.69751
1258.16	5.23682
1261.54	10.2268
1264.91	8.35156
1268.29	5.13843
1271.66	8.67432
1275.04	10.3601
1278.41	6.86792
1281.79	0.335693
