Measurement: Raman, 532 nm, unoriented, Raman Data Processed
Mineral: Ondrusite
Rruff sample: R141029
Ideal chemistry: CaCu^2+^_4_(As^5+^O_4_)_2_(As^5+^O_3_OH)_2_10H_2_O
Locality: Svornost mine, Jáchymov, Krušné Hory Mts, Karlovy Vary, Bohemia, Czech Republic
Source: William W. Pinch
Description: Pale green thin bladed crystals with striations parallel to the elongated direction, associated with quartz
Raman shift (cm-1)	intensity
160.454	0
163.347	1.98181
166.24	2.27112
169.132	2.36316
172.025	1.77625
174.918	8.79529
177.81	13.0467
180.703	15.5206
183.596	14.4225
186.488	8.01416
189.381	2.63391
192.274	6.3573
195.167	3.16028
198.059	2.2937
200.952	0.775146
203.845	0.803467
206.737	1.50183
209.63	1.07068
212.523	2.50061
215.416	5.66699
218.308	7.75732
221.201	9.80041
224.094	4.35962
226.986	2.78589
229.879	0.733643
232.772	1.25952
235.664	5.96411
238.557	7.53662
241.45	8.58203
244.343	2.12183
247.235	1.04565
250.128	3.76343
253.021	3.35986
255.913	1.1593
258.806	6.70447
261.699	2.76147
264.591	0.64978
267.484	3.6897
270.377	5.6311
273.27	0.069824
276.162	4.05054
279.055	9.74927
281.948	8.31885
284.84	12.2272
287.733	17.213
290.626	14.1311
293.519	9.57385
296.411	15.7241
299.304	18.15
302.197	15.7626
305.089	10.428
307.982	5.5415
310.875	2.14062
313.767	0.951416
316.66	4.92065
319.553	7.9696
322.445	7.33508
325.338	8.49756
328.231	9.49683
331.124	8.02063
334.016	14.8185
336.909	13.474
339.802	15.4132
342.694	12.7953
345.587	14.4934
348.48	15.749
351.373	13.8445
354.265	13.9104
357.158	11.6078
360.051	3.13232
362.943	7.67529
365.836	9.54126
368.729	13.4456
371.621	12.9261
374.514	9.59497
377.407	7.1781
380.3	5.90418
383.192	2.67163
386.085	5.09241
388.978	8.78662
391.87	7.8219
394.763	10.3084
397.656	12.9846
400.548	11.5643
403.441	7.33447
406.334	0.236084
409.226	2.51782
412.119	3.0282
415.012	7.91467
417.905	1.18005
420.797	1.62195
423.69	2.17859
426.583	2.34924
429.475	2.86963
432.368	1.45178
435.261	2.70679
438.154	0.712769
441.046	0.109619
443.939	4.43774
446.832	9.66992
449.724	9.3811
452.617	8.86182
455.51	13.0356
458.402	13.1377
461.295	12.9155
464.188	12.613
467.08	5.80664
469.973	2.4541
472.866	1.2644
475.759	7.38892
478.651	3.45508
481.544	4.19653
484.437	1.84497
487.329	4.85938
490.222	9.32031
493.115	9.86743
496.007	7.57373
498.9	10.7844
501.793	12.1062
504.686	17.8093
507.578	16.4512
510.471	12.9592
513.364	14.8025
516.256	15.7617
519.149	9.61621
522.042	11.3999
524.934	11.052
527.827	6.73633
530.72	16.7441
533.613	17.0706
536.505	14.064
539.398	18.1777
542.291	22.9199
545.183	24.2278
548.076	22.9788
550.969	25.366
553.861	24.5066
556.754	26.0571
559.647	20.4285
562.54	11.6435
565.432	12.948
568.325	11.3088
571.218	10.5537
574.11	9.20239
577.003	18.3557
579.896	9.59839
582.788	3.75342
585.681	8.60718
588.574	1.6023
591.467	4.34961
594.359	2.76733
597.252	3.52295
600.145	1.74439
603.037	3.85278
605.93	8.57251
608.823	4.16138
611.716	6.85376
614.608	3.86328
617.501	1.95459
620.394	5.2229
623.286	5.80811
626.179	4.40698
629.072	5.16748
631.964	10.8796
634.857	7.13965
637.75	8.56909
640.643	0.994873
643.535	2.86475
646.428	1.78784
649.321	3.479
652.213	9.78418
655.106	6.1416
657.999	2.76367
660.891	1.802
663.784	1.80713
666.677	1.75659
669.569	1.99072
672.462	1.7312
675.355	2.27905
678.248	3.23364
681.14	3.54614
684.033	1.94849
686.926	2.22241
689.818	4.83716
692.711	5.54981
695.604	12.6101
698.496	12.1602
701.389	5.30786
704.282	6.31836
707.175	7.25146
710.067	7.99561
712.96	9.61035
715.853	9.4043
718.745	12.0288
721.638	8.16284
724.531	10.7312
727.423	5.49634
730.316	6.23071
733.209	11.1731
736.102	11.5537
738.994	10.0713
741.887	4.58521
744.78	6.68506
747.672	6.71753
750.565	7.21509
753.458	0.848389
756.351	1.6709
759.243	3.93066
762.136	3.45044
765.029	4.24731
767.921	2.13135
770.814	3.63599
773.707	9.5022
776.599	8.60498
779.492	8.42285
782.385	7.70776
785.278	4.04492
788.17	4.33521
791.063	4.85352
793.956	8.59424
796.848	4.34888
799.741	9.47827
802.634	10.5469
805.526	13.7371
808.419	14.158
811.312	20.3057
814.205	26.2954
817.097	34.2932
819.99	45.4883
822.883	52.3118
825.775	64.5171
828.668	75.4319
831.561	93.1916
834.453	104.153
837.346	122.503
840.239	135.352
843.132	144.321
846.024	148.319
848.917	151.339
851.81	152.426
854.702	155.005
857.595	147.606
860.488	141.393
863.38	130.791
866.273	111.039
869.166	97.3984
872.059	75.042
874.951	51.2043
877.844	34.6536
880.737	30.864
883.629	21.8284
886.522	18.7004
889.415	9.76099
892.308	9.19556
895.2	14.4863
898.093	13.1614
900.986	12.8755
903.878	9.354
906.771	4.32983
909.664	5.93799
912.556	2.06445
915.449	1.59595
918.342	3.80591
921.235	4.66602
924.127	3.94629
927.02	4.63672
929.913	4.396
932.805	4.19922
935.698	1.78052
938.591	1.94849
941.483	3.58935
944.376	6.69434
947.269	5.26929
950.162	6.76685
953.054	4.72681
955.947	0.50293
958.84	2.89551
961.732	5.65967
964.625	0.035645
967.518	3.69922
970.41	1.24463
973.303	5.03906
976.196	6.9917
979.088	11.7258
981.981	14.4236
984.874	15.7344
987.767	8.79932
990.659	8.85059
993.552	9.698
996.445	8.75024
999.337	3.67847
1002.23	0.951416
1005.12	4.0813
1008.02	4.08862
1010.91	3.46851
1013.8	7.54565
1016.69	13.0752
1019.59	5.51856
1022.48	1.32471
1025.37	5.12134
1028.26	3.479
1031.16	4.8291
1034.05	2.23657
1036.94	4.97534
1039.84	8.28589
1042.73	4.81348
1045.62	8.19653
1048.51	9.15234
1051.41	9.74512
1054.3	6.73779
1057.19	1.96753
1060.08	7.55127
1062.98	9.41504
1065.87	8.13745
1068.76	12.0461
1071.65	7.80078
1074.55	11.7908
1077.44	10.1221
1080.33	4.42407
1083.23	7.18189
1086.12	10.9988
1089.01	10.7922
1091.9	4.12085
1094.8	6.41919
1097.69	3.38452
1100.58	3.86011
1103.47	2.58594
1106.37	7.23877
1109.26	7.06763
1112.15	12.8535
1115.05	9.92212
1117.94	7.59839
1120.83	8.95557
1123.72	2.58447
1126.62	3.46875
1129.51	2.86304
1132.4	2.76245
1135.29	2.33008
1138.19	3.2832
1141.08	8.49268
1143.97	5.70166
1146.87	0.398438
1149.76	0.835205
1152.65	5.72925
1155.54	8.86157
1158.44	9.92041
1161.33	12.5176
1164.22	10.2224
1167.11	13.9622
1170.01	14.9424
1172.9	8.64477
1175.79	12.2207
1178.68	13.3352
1181.58	15.3001
1184.47	14.4123
1187.36	16.1282
1190.26	18.0957
1193.15	16.4187
1196.04	21.7383
1198.93	18.821
1201.83	11.8848
1204.72	16.8091
1207.61	15.7722
1210.51	12.312
1213.4	13.6606
1216.29	18.9973
1219.18	21.0022
1222.08	20.217
1224.97	18.5952
1227.86	14.029
1230.75	12.8711
1233.65	13.9907
1236.54	9.23901
1239.43	16.2312
1242.32	8.00757
1245.22	8.56445
1248.11	6.41333
1251	9.8335
1253.89	15.5012
1256.79	13.3565
1259.68	12.1348
1262.57	7.73779
1265.47	12.083
1268.36	8.65137
1271.25	2.24951
1274.14	5.56494
1277.04	2.39233
1279.93	6.17627
1282.82	5.90527
1285.71	9.03809
1288.61	11.625
1291.5	8.52441
1294.39	7.24097
1297.29	0.937012
1300.18	0.376221
