Measurement: Raman, 780 nm, unoriented, Raman Data Processed
Mineral: Parasymplesite
Rruff sample: R150137
Ideal chemistry: Fe^2+^_3_(As^5+^O_4_)_2_8H_2_O
Locality: Kiura Mine, Oita Pref., Kyushu Island, Japan
Source: Jeremie Pfister
Description: Aggregates of dark-bluish grey euhedral crystals, associated with smoky scorodite.
Raman shift (cm-1)	intensity
107.831	0
111.206	6.82727
114.581	9.07385
117.956	10.9054
121.331	11.3401
124.705	8.69348
128.08	4.93567
131.455	4.16382
134.83	2.94006
138.205	4.97266
141.579	0.2229
144.954	6.5708
148.329	5.64771
151.704	5.69385
155.079	10.7646
158.453	4.0957
161.828	8.00317
165.203	12.5381
168.578	3.40063
171.953	3.0669
175.328	0.039063
178.702	5.31665
182.077	5.65234
185.452	2.77893
188.827	6.13879
192.202	3.61499
195.577	4.93237
198.951	1.1615
202.326	4.01416
205.701	5.0365
209.076	6.99023
212.451	5.36182
215.825	6.30627
219.2	10.7976
222.575	5.80115
225.95	9.12012
229.325	4.44287
232.7	10.8683
236.074	8.31055
239.449	13.0132
242.824	6.1438
246.199	7.16492
249.574	6.47229
252.948	4.26941
256.323	6.43237
259.698	2.55237
263.073	4.00378
266.448	8.3136
269.822	3.92481
273.197	3.54504
276.572	3.66406
279.947	6.2406
283.322	4.51196
286.697	5.11633
290.071	3.6676
293.446	1.11804
296.821	5.22034
300.196	2.08948
303.571	4.30627
306.945	6.94775
310.32	1.17383
313.695	4.78113
317.07	1.02893
320.445	0.409424
323.82	0.149048
327.194	0.19751
330.569	5.38647
333.944	7.47949
337.319	0.074097
340.694	2.65955
344.068	1.75403
347.443	5.45801
350.818	2.38769
354.193	3.65735
357.568	5.08289
360.942	0.210571
364.317	5.61316
367.692	5.81567
371.067	5.05298
374.442	3.62012
377.817	6.44934
381.191	0.649536
384.566	2.79736
387.941	2.64014
391.316	3.78992
394.691	0.77002
398.065	1.00134
401.44	0.502563
404.815	1.42664
408.19	7.60644
411.565	1.86987
414.94	0.464355
418.314	9.68994
421.689	8.2041
425.064	9.20117
428.439	6.73096
431.814	6.44177
435.188	15.4075
438.563	13.5582
441.938	14.535
445.313	16.7833
448.688	15.7931
452.063	12.363
455.437	17.9382
458.812	20.34
462.187	21.8007
465.562	18.7571
468.937	23.235
472.312	25.3428
475.686	22.4087
479.061	22.5196
482.436	19.2795
485.811	20.5708
489.186	21.702
492.56	22.6473
495.935	17.8055
499.31	13.1457
502.685	14.8018
506.06	15.4823
509.435	15.9314
512.809	12.8395
516.184	10.6588
519.559	12.7449
522.934	7.91113
526.308	8.1062
529.683	7.82153
533.058	7.66443
536.433	4.01953
539.808	1.99475
543.183	1.29504
546.557	6.0946
549.932	8.36255
553.307	3.98755
556.682	1.50427
560.057	4.49451
563.432	1.67895
566.806	1.60474
570.181	2.17493
573.556	4.68652
576.931	3.74316
580.306	2.70019
583.681	5.23096
587.055	3.27161
590.43	0.542358
593.805	2.6106
597.18	0.070313
600.555	5.26196
603.929	5.604
607.304	7.88123
610.679	3.28125
614.054	2.04114
617.429	3.37036
620.803	6.88196
624.178	6.56421
627.553	6.73486
630.928	9.32288
634.303	7.3407
637.678	11.4435
641.052	8.97705
644.427	1.74145
647.802	4.59351
651.177	4.03638
654.552	11.2417
657.927	4.87329
661.301	7.56274
664.676	6.81799
668.051	2.11841
671.426	4.19519
674.801	4.70227
678.175	7.47351
681.55	1.64539
684.925	7.85828
688.3	9.08545
691.675	6.43835
695.049	4.22681
698.424	6.98218
701.799	2.8407
705.174	4.03174
708.549	10.1163
711.923	5.03137
715.298	3.56433
718.673	5.90955
722.048	0.115112
725.423	1.63647
728.798	2.60266
732.172	4.36939
735.547	0.687988
738.922	0.840332
742.297	0.985229
745.672	1.44116
749.047	6.13123
752.421	0.822754
755.796	1.03638
759.171	6.77173
762.546	0.471436
765.921	0.692139
769.295	2.26929
772.67	1.09265
776.045	1.30261
779.42	1.18494
782.795	1.66016
786.169	5.86218
789.544	10.7427
792.919	6.92151
796.294	8.6145
799.669	7.54431
803.044	12.6962
806.418	14.9248
809.793	9.32104
813.168	17.9835
816.543	13.1373
819.918	13.6491
823.293	14.2295
826.667	13.5532
830.042	13.0458
833.417	14.5184
836.792	17.7021
840.167	18.993
843.541	19.326
846.916	16.2737
850.291	19.4717
853.666	16.3117
857.041	18.325
860.415	16.6149
863.79	16.0714
867.165	17.075
870.54	14.4235
873.915	14.7692
877.29	16.1301
880.664	14.8151
884.039	16.4847
887.414	12.3079
890.789	14.342
894.164	9.39209
897.538	12.8601
900.913	8.87646
904.288	8.51184
907.663	7.92871
911.038	5.96021
914.413	8.58179
917.787	6.67505
921.162	1.87805
924.537	2.63318
927.912	4.85718
931.287	4.52844
934.661	1.99805
938.036	2.64185
941.411	1.59509
944.786	1.05212
948.161	2.03918
951.535	0.884521
954.91	2.35352
958.285	1.33228
961.66	0.927856
965.035	3.58643
968.41	4.46948
971.784	8.04028
975.159	2.97949
978.534	4.3667
981.909	5.20886
985.284	9.23498
988.659	3.94922
992.033	7.31213
995.408	5.21448
998.783	5.78442
1002.16	4.75513
1005.53	3.198
1008.91	2.25806
1012.28	5.26013
1015.66	4.88745
1019.03	3.55688
1022.41	3.53027
1025.78	3.12231
1029.16	2.62598
1032.53	5.01038
1035.91	5.39612
1039.28	6.99963
1042.66	7.00488
1046.03	6.47339
1049.4	8.92773
1052.78	8.05237
1056.15	8.23706
1059.53	3.56189
1062.9	8.43323
1066.28	6.05469
1069.65	5.20361
1073.03	7.2793
1076.4	6.10767
1079.78	3.95227
1083.15	5.99951
1086.53	4.0625
1089.9	5.03613
1093.28	1.20728
1096.65	5.87524
1100.03	0.087891
1103.4	2.03894
1106.78	3.09961
1110.15	6.90027
1113.53	2.48377
1116.9	1.8241
1120.28	0.36731
1123.65	1.40064
1127.03	3.7655
1130.4	0.386475
1133.78	0.944336
1137.15	3.74219
1140.53	2.19727
1143.9	0.796387
1147.28	2.39258
1150.65	5.43677
1154.03	5.99316
1157.4	4.84949
1160.77	8.3999
1164.15	5.72571
1167.52	9.01977
1170.9	9.41089
1174.27	9.20178
1177.65	5.7887
1181.02	6.4668
1184.4	6.41956
1187.77	5.39123
1191.15	7.24377
1194.52	6.59802
1197.9	6.59814
1201.27	4.96167
1204.65	1.99988
1208.02	7.02649
1211.4	2.25195
1214.77	3.99658
1218.15	5.61304
1221.52	5.6897
1224.9	5.81445
1228.27	3.1582
1231.64	3.40625
1235.02	4.91113
1238.39	1.51538
1241.77	0.740601
1245.14	1.83337
1248.52	1.42627
1251.89	1.47131
1255.27	2.97278
1258.64	5.04724
1262.02	3.76965
1265.39	4.66846
1268.77	5.46204
1272.14	1.4989
1275.52	7.74963
1278.89	0.158447
1282.27	0
