Measurement: Raman, 532 nm, unoriented, Raman Data Processed
Mineral: Parasymplesite
Rruff sample: R150137
Ideal chemistry: Fe^2+^_3_(As^5+^O_4_)_2_8H_2_O
Locality: Kiura Mine, Oita Pref., Kyushu Island, Japan
Source: Jeremie Pfister
Description: Aggregates of dark-bluish grey euhedral crystals, associated with smoky scorodite.
Raman shift (cm-1)	intensity
160.454	0
163.347	1.36979
166.24	0.781212
169.132	0.009514
172.025	1.13257
174.918	0.984291
177.81	0.796837
180.703	1.31219
183.596	0.23555
186.488	1.20554
189.381	0.813858
192.274	0.329216
195.167	0.83326
198.059	1.38831
200.952	1.41256
203.845	1.78259
206.737	0.510376
209.63	1.32733
212.523	0.576027
215.416	1.15137
218.308	0.930351
221.201	1.57243
224.094	0.939987
226.986	2.14602
229.879	2.71146
232.772	4.0151
235.665	3.29514
238.557	3.47043
241.45	3.42812
244.343	3.2465
247.235	2.72322
250.128	3.59189
253.021	3.41673
255.913	3.78348
258.806	3.43433
261.699	2.88893
264.591	3.83501
267.484	3.40538
270.377	2.96263
273.27	3.4433
276.162	3.80586
279.055	3.51537
281.948	2.51575
284.84	2.32964
287.733	1.83185
290.626	1.67799
293.519	1.4374
296.411	0.702179
299.304	0.827126
302.197	1.45787
305.089	0.458847
307.982	0.631432
310.875	0.008247
313.767	0.639389
316.66	0.683571
319.553	0.632133
322.445	0.923592
325.338	0.254921
328.231	0.75882
331.124	0.421005
334.016	0.603424
336.909	0.601189
339.802	0.779495
342.694	0.724403
345.587	0.027603
348.48	1.15063
351.373	0.810516
354.265	1.89293
357.158	1.41862
360.051	1.01817
362.943	1.50198
365.836	1.02017
368.729	1.30231
371.621	1.20003
374.514	0.962639
377.407	0.97319
380.3	0.023544
383.192	0.135033
386.085	0.252098
388.978	0.202332
391.87	0.396645
394.763	0.500664
397.656	0.127518
400.548	0.763496
403.441	0.001587
406.334	0.18409
409.226	0.024895
412.119	0.148842
415.012	1.2048
417.905	0.196739
420.797	1.41875
423.69	0.769485
426.583	1.0287
429.475	2.0719
432.368	1.7568
435.261	2.2905
438.154	2.69333
441.046	2.33688
443.939	2.39574
446.832	3.35403
449.724	2.2426
452.617	3.45477
455.51	2.68199
458.402	3.50602
461.295	3.61508
464.188	3.25839
467.08	3.30601
469.973	3.85367
472.866	4.31027
475.759	4.59248
478.651	5.25793
481.544	4.9997
484.437	5.39804
487.329	4.92047
490.222	5.55752
493.115	5.57629
496.007	6.31371
498.9	4.83343
501.793	5.3719
504.686	6.42899
507.578	6.30401
510.471	6.01775
513.364	6.2165
516.256	6.17724
519.149	4.83997
522.042	5.24571
524.934	3.89346
527.827	3.28117
530.72	2.92197
533.613	1.99649
536.505	2.25449
539.398	1.50372
542.291	1.4128
545.183	1.03204
548.076	1.09755
550.969	1.08103
553.861	1.01408
556.754	0.437958
559.647	1.10532
562.54	0.697815
565.432	0.18924
568.325	0.597961
571.218	0.195793
574.11	0.584915
577.003	0.889099
579.896	1.23184
582.789	0.124229
585.681	0.865776
588.574	0.153511
591.467	0.211311
594.359	0.154602
597.252	0.024338
600.145	0.186295
603.038	0.451782
605.93	0.404694
608.823	0.391701
611.716	0.164177
614.608	0.7024
617.501	1.43256
620.394	1.31929
623.286	1.75851
626.179	1.52023
629.072	1.17053
631.965	1.9198
634.857	1.63723
637.75	2.36438
640.643	1.33233
643.535	2.2277
646.428	2.16957
649.321	2.4528
652.213	2.69855
655.106	2.8959
657.999	2.45222
660.891	2.28365
663.784	2.87545
666.677	1.68421
669.57	2.89323
672.462	2.75759
675.355	3.12872
678.248	2.7643
681.14	2.53677
684.033	1.69343
686.926	2.66434
689.818	2.02895
692.711	1.83567
695.604	1.81731
698.497	2.20765
701.389	1.83854
704.282	1.14619
707.175	0.934532
710.067	0.832848
712.96	0.176033
715.853	0.103203
718.745	0.188347
721.638	0.045929
724.531	0.273468
727.424	0.106934
730.316	0.711624
733.209	0.021301
736.102	0.394897
738.994	0.594124
741.887	0.72467
744.78	0.256058
747.673	0.19632
750.565	1.27452
753.458	0.900665
756.351	1.745
759.243	1.50704
762.136	2.97518
765.029	3.21835
767.921	3.31765
770.814	1.97566
773.707	3.75518
776.6	3.24847
779.492	2.75323
782.385	2.97463
785.278	3.22926
788.17	2.42082
791.063	2.94392
793.956	3.97855
796.848	3.30807
799.741	4.57207
802.634	5.29391
805.527	5.47121
808.419	6.6708
811.312	6.25484
814.205	7.594
817.097	7.65715
819.99	8.39929
822.883	8.48542
825.775	9.85986
828.668	11.5422
831.561	13.8047
834.453	13.9236
837.346	15.2732
840.239	15.3403
843.132	15.9688
846.024	15.3186
848.917	14.8974
851.81	13.0514
854.702	12.6531
857.595	11.4247
860.488	11.6247
863.38	10.2356
866.273	9.72616
869.166	9.03145
872.059	8.89568
874.951	9.1982
877.844	7.38172
880.737	7.52186
883.629	6.87872
886.522	6.61375
889.415	6.35738
892.308	5.15108
895.2	5.17983
898.093	4.95996
900.986	4.60249
903.878	3.95332
906.771	2.5512
909.664	2.1741
912.557	1.44892
915.449	0.725159
918.342	3.08627
921.235	0.45858
924.127	0.021454
927.02	0.395462
929.913	0.340607
932.805	0.147667
935.698	0.134689
938.591	0.197983
941.484	0.437881
944.376	0.014839
947.269	0.24054
950.162	0.886192
953.054	0.294357
955.947	0.081375
958.84	0.010422
961.732	0.054512
964.625	0.178474
967.518	0.358131
970.41	0.285103
973.303	0.752892
976.196	1.05905
979.089	0.872314
981.981	0.629921
984.874	1.31487
987.767	1.7656
990.659	1.61903
993.552	1.71758
996.445	1.39999
999.337	2.5831
1002.23	2.44297
1005.12	2.66904
1008.02	2.49706
1010.91	2.39451
1013.8	2.74367
1016.69	2.36307
1019.59	2.41612
1022.48	3.27507
1025.37	3.02747
1028.26	2.91478
1031.16	3.21181
1034.05	3.02414
1036.94	3.18209
1039.84	3.26743
1042.73	3.2077
1045.62	4.1865
1048.51	2.97038
1051.41	2.44204
1054.3	2.4247
1057.19	2.48014
1060.08	1.86602
1062.98	1.58321
1065.87	1.25857
1068.76	2.06158
1071.65	1.33876
1074.55	1.14017
1077.44	1.11671
1080.33	0.878738
1083.23	1.93344
1086.12	0.959435
1089.01	1.22438
1091.9	0.793205
1094.8	0.992409
1097.69	1.19994
1100.58	0.546242
1103.47	1.03197
1106.37	1.34591
1109.26	1.49395
1112.15	1.09516
1115.05	0.801605
1117.94	0.816864
1120.83	0.352463
1123.72	0.402031
1126.62	0.904823
1129.51	1.01635
1132.4	0.167168
1135.29	0.873016
1138.19	0.230873
1141.08	0.294006
1143.97	0.11203
1146.87	0.33667
1149.76	0.233032
1152.65	0.1716
1155.54	0.301659
1158.44	0.115593
1161.33	0.814247
1164.22	0.012878
1167.11	0.184105
1170.01	0.341003
1172.9	0.242477
1175.79	0.159821
1178.68	0.499443
1181.58	0.594559
1184.47	0.917404
1187.36	0.609474
1190.26	0.502815
1193.15	0.320168
1196.04	0.243782
1198.93	1.02714
1201.83	0.067116
1204.72	0.867233
1207.61	0.802444
1210.51	0.673035
1213.4	0.296783
1216.29	0.257225
1219.18	1.37147
1222.08	1.39686
1224.97	0.52729
1227.86	0.400833
1230.75	0.635422
1233.65	1.01901
1236.54	0.528374
1239.43	0.595116
1242.32	0.74807
1245.22	0.934242
1248.11	0.603943
1251	0.288696
1253.89	0.711464
1256.79	0.807327
1259.68	0.206596
1262.57	0.091133
1265.47	0.559807
1268.36	0.895203
1271.25	1.23628
1274.14	0.608269
1277.04	0.728798
1279.93	0.423843
1282.82	0.577309
1285.71	1.21989
1288.61	0.072838
1291.5	1.33071
1294.39	0.535789
1297.29	0.938164
1300.18	0
