Measurement: Raman, 780 nm, unoriented, Raman Data Processed
Mineral: Protochabourneite
Rruff sample: R140583
Ideal chemistry: Tl^1+^_4-x_Pb^2+^_2+2x_Sb^3+^_20-x-y_As^3+^_y_S^2-^_34_ (with 0.02  x  0.34, 5.71  y  6.69)
Locality: Monte Arsiccio mine, Sant'Anna Di Stazzema, Stazzema, Apuan Alps, Lucca Province, Tuscany, Italy
Source: Stefan Schorn
Description: Black metallic crystals
Raman shift (cm-1)	intensity
93.8499	0
97.2247	0.061035
100.6	4.5188
103.974	6.36597
107.349	16.2673
110.724	10.7305
114.099	18.5991
117.474	28.5339
120.848	36.1011
124.223	42.761
127.598	41.4297
130.973	46.3362
134.348	36.0889
137.722	30.9936
141.097	16.7507
144.472	7.19263
147.847	10.4582
151.222	4.00464
154.597	3.2124
157.971	5.67822
161.346	2.79248
164.721	3.65405
168.096	4.75903
171.471	6.0542
174.845	0.166748
178.22	0.607666
181.595	8.92602
184.97	15.1502
188.345	24.6372
191.72	16.8079
195.094	18.6545
198.469	20.4348
201.844	31.2278
205.219	36.4539
208.594	34.929
211.969	40.1733
215.343	44.8782
218.718	47.542
222.093	47.884
225.468	45.3897
228.843	49.5513
232.217	46.908
235.592	53.5605
238.967	51.3577
242.342	54.8906
245.717	65.1392
249.091	66.6438
252.466	64.9158
255.841	58.7607
259.216	53.3518
262.591	41.9006
265.966	48.7744
269.34	42.0864
272.715	42.0361
276.09	49.8
279.465	57.3486
282.84	64.6814
286.214	76.6499
289.589	81.4956
292.964	102.313
296.339	118.956
299.714	128.095
303.089	142.968
306.463	146.039
309.838	146.055
313.213	148.053
316.588	134.528
319.963	121.801
323.337	111.664
326.712	90.5162
330.087	70.1773
333.462	58.7349
336.837	43.0629
340.212	23.7886
343.586	18.879
346.961	14.938
350.336	8.54138
353.711	13.7054
357.086	9.58716
360.46	9.12854
363.835	3.84766
367.21	11.9182
370.585	2.30872
373.96	2.83423
377.334	4.71338
380.709	4.06567
384.084	6.64038
387.459	2.6731
390.834	0.803711
394.209	0.549438
397.583	0.099609
400.958	6.68298
404.333	6.5697
407.708	9.43176
411.083	12.6652
414.457	9.58496
417.832	20.3683
421.207	20.0924
424.582	19.76
427.957	29.1619
431.332	20.6246
434.706	26.8713
438.081	27.52
441.456	27.5662
444.831	23.1869
448.206	26.8719
451.58	26.7325
454.955	26.0077
458.33	27.3842
461.705	24.4926
465.08	18.9163
468.455	17.4769
471.829	26.786
475.204	24.2445
478.579	24.5619
481.954	21.1664
485.329	20.9155
488.704	14.4165
492.078	17.5852
495.453	15.1174
498.828	17.8339
502.203	11.2317
505.577	5.66553
508.952	13.3325
512.327	8.81152
515.702	2.25915
519.077	10.2501
522.452	4.29748
525.826	5.23999
529.201	2.44177
532.576	2.55981
535.951	6.55273
539.326	0.837402
542.701	2.15356
546.075	5.52441
549.45	6.05212
552.825	0.394531
556.2	0.687256
559.575	1.44421
562.949	0.245728
566.324	1.53272
569.699	2.1687
573.074	1.91174
576.449	3.37805
579.823	3.302
583.198	7.64905
586.573	3.49414
589.948	1.85364
593.323	2.38782
596.698	1.25879
600.072	4.17444
603.447	4.11011
606.822	2.55859
610.197	6.03076
613.572	0.025024
616.947	1.35742
620.321	9.7489
623.696	6.10828
627.071	5.63916
630.446	3.026
633.821	6.08875
637.195	11.1097
640.57	7.46069
643.945	0.680298
647.32	2.66479
650.695	3.11401
654.069	3.74634
657.444	3.42041
660.819	4.09192
664.194	3.46802
667.569	0.577026
670.944	2.24683
674.318	1.61914
677.693	3.97815
681.068	0.633423
684.443	3.51392
687.818	0.527832
691.192	3.57764
694.567	0.836792
697.942	1.95447
701.317	0.523315
704.692	0.125732
708.067	1.62158
711.441	3.74036
714.816	3.54126
718.191	1.1803
721.566	0.941406
724.941	5.16882
728.316	3.89612
731.69	4.08936
735.065	0.116577
738.44	0.805176
741.815	4.7926
745.19	2.90625
748.564	1.65808
751.939	0.408447
755.314	2.87842
758.689	2.43164
762.064	4.44067
765.438	6.18787
768.813	0.541626
772.188	1.92407
775.563	4.26196
778.938	1.2511
782.313	1.39172
785.687	2.39612
789.062	3.04028
792.437	5.55823
795.812	4.10303
799.187	5.49487
802.562	7.17334
805.936	7.49817
809.311	8.00342
812.686	10.3795
816.061	7.30908
819.436	7.34375
822.81	7.43469
826.185	6.34241
829.56	5.07202
832.935	10.8323
836.31	8.55029
839.684	9.22571
843.059	10.0053
846.434	7.64856
849.809	7.5564
853.184	9.7594
856.558	9.62732
859.933	7.56055
863.308	5.40955
866.683	9.25464
870.058	4.23865
873.433	6.68152
876.807	2.72339
880.182	14.2646
883.557	7.34851
886.932	1.88782
890.307	4.48975
893.682	0.340088
897.056	3.9458
900.431	4.31177
903.806	6.8905
907.181	2.03455
910.556	0.716675
913.93	0.685059
917.305	0.339111
920.68	1.21521
924.055	1.18689
927.43	1.97839
930.804	2.05066
934.179	9.26502
937.554	2.94653
940.929	7.73206
944.304	1.04895
947.679	0.514038
951.053	0.717773
954.428	1.18933
957.803	3.96777
961.178	4.625
964.553	2.24036
967.928	3.16894
971.302	1.96912
974.677	4.17456
978.052	4.26147
981.427	2.43426
984.802	0.793396
988.176	6.40064
991.551	3.98297
994.926	2.93695
998.301	1.82812
1001.68	3.73047
1005.05	2.98987
1008.42	3.13873
1011.8	4.53674
1015.17	2.41412
1018.55	3.87317
1021.92	2.9422
1025.3	4.28833
1028.67	5.96179
1032.05	3.68109
1035.42	3.25421
1038.8	3.09143
1042.17	5.46551
1045.55	5.01465
1048.92	2.80469
1052.3	4.8493
1055.67	3.96466
1059.05	7.80933
1062.42	5.39404
1065.8	3.79114
1069.17	3.49835
1072.55	4.55872
1075.92	2.15991
1079.3	5.33185
1082.67	14.3466
1086.05	2.6261
1089.42	3.36999
1092.8	1.56012
1096.17	1.91894
1099.55	1.08698
1102.92	1.44159
1106.3	6.0448
1109.67	1.71417
1113.05	0.083679
1116.42	0.67804
1119.79	2.10327
1123.17	1.38507
1126.54	1.18988
1129.92	3.32819
1133.29	3.3847
1136.67	4.42017
1140.04	2.0766
1143.42	5.59161
1146.79	4.62848
1150.17	3.62024
1153.54	6.96808
1156.92	4.35901
1160.29	4.62335
1163.67	6.00909
1167.04	8.08063
1170.42	7.50647
1173.79	7.51782
1177.17	7.49744
1180.54	7.51929
1183.92	3.8501
1187.29	8.07434
1190.66	5.49786
1194.04	8.88788
1197.41	3.02112
1200.79	2.24414
1204.16	5.60333
1207.54	7.2605
1210.91	10.2477
1214.29	4.66888
1217.66	4.41461
1221.04	6.49756
1224.41	0.846863
1227.79	0.09314
1231.16	0.257263
1234.54	2.17896
1237.91	0.345886
1241.29	4.02289
1244.66	1.0144
1248.04	1.50482
1251.41	2.28217
1254.79	3.50659
1258.16	5.41016
1261.54	3.7381
1264.91	5.52032
1268.29	1.88452
1271.66	2.39038
1275.04	4.57843
1278.41	1.55249
1281.79	0.270325
