Measurement: Raman, 532 nm, unoriented, Raman Data Processed
Mineral: Rasvumite
Rruff sample: R060491
Ideal chemistry: KFe^2+^Fe^3+^S^2-^_3_
Locality: Coyote Peak, Humboldt County, California, USA
Source: Michael Scott
Description: Parallel aggregates of brownish-red fibers, associated with phlogopite, andradite, augite, pyrrhotite, magnetite, sulphur, and apatite. The sample profile under the red laser matches sulphur
Raman shift (cm-1)	intensity
92.1938	0
95.5686	1.34677
98.9434	1.46221
102.318	0.017468
105.693	0.054662
109.068	3.51514
112.443	0.797568
115.817	2.47484
119.192	2.42743
122.567	1.52055
125.942	2.56742
129.317	2.02373
132.692	3.04635
136.066	2.89701
139.441	4.37245
142.816	4.72261
146.191	4.551
149.566	7.75651
152.94	9.21623
156.315	7.36427
159.69	2.63028
163.065	0.984146
166.44	0.059666
169.815	0.139765
173.189	0.513669
176.564	0.035873
179.939	0.093716
183.314	0.030656
186.689	0.317043
190.064	0.661193
193.438	0.129472
196.813	0.364109
200.188	0.089855
203.563	1.91097
206.938	3.05121
210.312	3.05378
213.687	5.37168
217.062	8.9738
220.437	11.3556
223.812	2.69946
227.186	2.10692
230.561	2.51993
233.936	3.34827
237.311	4.13301
240.686	5.05789
244.06	7.0184
247.435	8.00308
250.81	6.37809
254.185	4.21473
257.56	1.68914
260.935	0.137854
264.309	0.468836
267.684	0.153296
271.059	0.086315
274.434	0.14933
277.809	0.54329
281.183	0.558567
284.558	1.59211
287.933	2.38279
291.308	4.39392
294.683	5.43121
298.058	5.77175
301.432	5.55941
304.807	3.68916
308.182	2.12642
311.557	1.56666
314.932	0.597668
318.307	0.398864
321.681	0.228073
325.056	0.124788
328.431	0.012528
331.806	0.008976
335.181	0.070253
338.555	0.196626
341.93	0.575663
345.305	1.33006
348.68	1.53276
352.055	1.84292
355.43	3.30908
358.804	4.39572
362.179	5.03884
365.554	7.2186
368.929	8.52995
372.304	10.7032
375.678	13.2287
379.053	15.5168
382.428	16.3934
385.803	18.153
389.178	18.9287
392.553	18.5445
395.927	17.4797
399.302	16.4726
402.677	14.0222
406.052	12.5682
409.427	10.1071
412.801	7.9865
416.176	7.01521
419.551	4.21048
422.926	3.56053
426.301	3.50863
429.675	2.05186
433.05	1.71623
436.425	0.678017
439.8	0.713563
443.175	0.274788
446.55	0.225568
449.924	0.141689
453.299	0.034036
456.674	0.707741
460.049	2.06164
463.424	3.68116
466.798	6.81792
470.173	10.6145
473.548	11.2211
476.923	5.28773
480.298	2.17495
483.673	1.61991
487.047	0.708754
490.422	0.450939
493.797	0.352573
497.172	0.141276
500.547	0.281836
503.921	0.092496
507.296	0.37337
510.671	0.083094
514.046	0.573838
517.421	0.184518
520.795	1.22054
524.17	1.23831
527.545	1.59677
530.92	1.74155
534.295	1.55937
537.67	1.9156
541.044	2.24643
544.419	3.63291
547.794	4.05765
551.169	3.4241
554.544	3.56259
557.918	3.04124
561.293	2.90476
564.668	1.74198
568.043	1.07397
571.418	0.678821
574.793	0.072479
578.167	2.66745
581.542	0.072694
584.917	0.024635
588.292	0.089721
591.667	0.038319
595.042	0.029005
598.416	0.094909
601.791	0.192689
605.166	0.049738
608.541	0.138884
611.916	0.524981
615.29	0.303091
618.665	0.592679
622.04	0.843108
625.415	0.421414
628.79	0.801869
632.164	0.9854
635.539	1.48238
638.914	1.85609
642.289	2.0273
645.664	2.25912
649.039	2.77845
652.413	2.94068
655.788	3.13849
659.163	3.46461
662.538	4.39073
665.913	4.87135
669.288	5.22556
672.662	6.19594
676.037	5.74747
679.412	6.59239
682.787	6.47002
686.162	6.82268
689.536	7.62
692.911	6.77716
696.286	6.12528
699.661	5.63135
703.036	5.00417
706.41	5.43651
709.785	4.97748
713.16	4.87264
716.535	4.36398
719.91	3.78364
723.284	3.52906
726.659	3.19205
730.034	2.47734
733.409	2.29339
736.784	2.19096
740.159	1.09629
743.533	1.06755
746.908	0.332295
750.283	0.43999
753.658	0.146578
757.033	0.051004
760.408	0.249614
763.782	0.176225
767.157	0.107281
770.532	0.052418
773.907	0.0827952
777.282	0.482896
780.656	0.110086
784.031	0.486941
787.406	0.098488
790.781	0.174478
794.156	0.425401
797.53	1.07834
800.905	1.49711
804.28	1.24954
807.655	1.64424
811.03	1.60019
814.405	1.3861
817.779	1.5599
821.154	5.32016
824.529	3.58611
827.904	3.78654
831.279	5.20096
834.654	3.14165
838.028	1.99498
841.403	1.84121
844.778	2.36451
848.153	2.14621
851.528	1.6494
854.902	1.92959
858.277	2.47388
861.652	2.16724
865.027	2.16583
868.402	2.21898
871.777	1.98633
875.151	2.12832
878.526	1.63703
881.901	1.32338
885.276	1.63287
888.651	1.14189
892.025	1.09696
895.4	0.521373
898.775	0.081215
902.15	0.785374
905.525	0.283023
908.899	0.142731
912.274	0.269607
915.649	0.06585
919.024	0.074183
922.399	0.022906
925.774	0.029945
929.148	0.017268
932.523	0.149474
935.898	0.613677
939.273	0.564175
942.648	1.00392
946.023	0.683469
949.397	0.0670065
952.772	0.011342
956.147	0.067999
959.522	1.00458
962.896	0.378935
966.271	0.941399
969.646	1.54308
973.021	2.06708
976.396	2.67199
979.771	2.16616
983.145	2.40832
986.52	2.36848
989.895	2.1022
993.27	1.68888
996.645	1.49161
1000.02	1.39224
1003.39	1.1739
1006.77	1.27861
1010.14	1.03669
1013.52	0.441099
1016.89	0.125141
1020.27	0.617237
1023.64	0.453577
1027.02	0.659244
1030.39	0.585485
1033.77	0.817339
1037.14	0.854129
1040.52	0.920674
1043.89	1.30719
1047.27	0.767796
1050.64	0.774695
1054.02	0.603576
1057.39	0.546587
1060.77	1.13256
1064.14	0.111189
1067.52	0.657713
1070.89	0.085319
1074.27	0.190114
1077.64	0.0855114
1081.02	0.334177
1084.39	0.095689
1087.77	0.233001
1091.14	0.129996
1094.51	0.092149
1097.89	0.750195
1101.26	0.337056
1104.64	0.890901
1108.01	0.535975
1111.39	0.194177
1114.76	0.7996
1118.14	1.00775
1121.51	0.850356
1124.89	0.993739
1128.26	1.04321
1131.64	0.808555
1135.01	0.586884
1138.39	1.15593
1141.76	1.19217
1145.14	0.589372
1148.51	0.720897
1151.89	0.039341
1155.26	0.276419
1158.64	0.32065
1162.01	0.036836
1165.38	0.091694
1168.76	0.361141
1172.13	0.101217
1175.51	0.397876
1178.88	0.07596
1182.26	0.413284
1185.63	0.317417
1189.01	0.657337
1192.38	0.846033
1195.76	0.312945
1199.13	0.18677
1202.51	0.515002
1205.88	0.035287
1209.26	0.635891
1212.63	0.574321
1216.01	0.891495
1219.38	0.184577
1222.76	0.505945
1226.13	0.669198
1229.51	0.040544
1232.88	0.401792
1236.26	0.157633
1239.63	0.011544
1243.01	0.08441
1246.38	0.012169
1249.76	0.591214
1253.13	0.240862
1256.51	0.572496
1259.88	0.321807
1263.26	0.385263
1266.63	0.625455
1270.01	0.716161
1273.38	0.41017
1276.76	0.797621
1280.13	0.531336
1283.5	0.407764
1286.88	1.0657
1290.25	0.262988
1293.63	0.213654
1297	0.312365
1300.38	0.108534
