Measurement: Raman, 780 nm, unoriented, Raman Data Processed
Mineral: Thometzekite
Rruff sample: R130618
Ideal chemistry: Pb^2+^Cu^2+^_2_(As^5+^O_4_)_2_2H_2_O
Locality: Tsumeb mine, Tsumeb, Otjikoto Region, Namibia
Source: Mark N. Feinglos
Description: Light blue-green with unidentified deeper green material.
Raman shift (cm-1)	intensity
93.8499	0
97.2247	7.68396
100.6	4.87707
103.974	7.67688
107.349	23.1446
110.724	0.803223
114.099	10.9828
117.474	9.21277
120.848	9.34082
124.223	13.2191
127.598	17.7146
130.973	21.5106
134.348	14.481
137.722	16.3069
141.097	9.05591
144.472	9.19665
147.847	0.348389
151.222	2.12024
154.597	15.3433
157.971	5.3512
161.346	13.6953
164.721	2.26453
168.096	13.7068
171.471	12.0819
174.845	5.91479
178.22	12.4055
181.595	8.11816
184.97	6.88684
188.345	14.1169
191.72	2.08582
195.094	6.39893
198.469	11.4756
201.844	8.46277
205.219	10.5409
208.594	6.85718
211.969	8.23621
215.343	8.10632
218.718	10.604
222.093	9.37256
225.468	10.8602
228.843	12.929
232.217	3.3396
235.592	11.4581
238.967	9.96729
242.342	12.1977
245.717	2.63916
249.091	3.41101
252.466	8.52576
255.841	2.36902
259.216	3.32922
262.591	3.11023
265.966	2.11353
269.34	3.02624
272.715	4.62659
276.09	1.69544
279.465	1.05774
282.84	3.31976
286.214	13.1019
289.589	0.522339
292.964	0.622742
296.339	5.08533
299.714	7.60242
303.089	14.7995
306.463	11.9136
309.838	5.18518
313.213	14.8826
316.588	13.5303
319.963	10.8509
323.337	6.6878
326.712	9.73547
330.087	14.7186
333.462	10.6628
336.837	13.2678
340.212	3.23151
343.586	13.3233
346.961	15.6849
350.336	17.9443
353.711	7.34967
357.086	1.36572
360.46	6.48456
363.835	10.2093
367.21	4.02844
370.585	2.28076
373.96	7.9519
377.334	1.51923
380.709	6.3772
384.084	4.25922
387.459	6.9079
390.834	2.46234
394.209	13.4579
397.583	6.31836
400.958	6.5946
404.333	8.22626
407.708	5.61578
411.083	3.00055
414.457	0.888489
417.832	5.79504
421.207	0.51001
424.582	1.88611
427.957	3.05042
431.332	9.60486
434.706	16.4699
438.081	18.6302
441.456	15.1427
444.831	11.9966
448.206	17.0131
451.58	17.1899
454.955	15.858
458.33	11.8978
461.705	9.16437
465.08	7.17804
468.455	10.4861
471.829	7.04059
475.204	8.8399
478.579	14.3541
481.954	6.96649
485.329	9.45917
488.704	17.8016
492.078	12.3809
495.453	12.4809
498.828	13.2795
502.203	9.70172
505.577	8.50903
508.952	12.6784
512.327	8.52722
515.702	4.86963
519.077	4.07159
522.452	2.15759
525.826	5.83502
529.201	6.50696
532.576	2.61487
535.951	0.243591
539.326	1.07965
542.701	0.861755
546.075	1.77319
549.45	5.40595
552.825	6.02124
556.2	0.563354
559.575	0.478333
562.949	1.68274
566.324	8.2868
569.699	9.99707
573.074	2.26404
576.449	5.47296
579.823	4.67084
583.198	9.86291
586.573	4.18872
589.948	10.1533
593.323	3.66876
596.698	10.4846
600.072	12.3709
603.447	8.70471
606.822	15.6013
610.197	9.71539
613.572	6.80627
616.947	12.4006
620.321	8.38538
623.696	11.1813
627.071	7.64099
630.446	6.58972
633.821	6.93207
637.195	11.4336
640.57	7.00354
643.945	4.75751
647.32	3.81696
650.695	2.31799
654.069	8.68939
657.444	5.22107
660.819	2.49261
664.194	0.583191
667.569	1.42639
670.944	2.0813
674.318	1.1225
677.693	2.47961
681.068	4.79846
684.443	1.99469
687.818	2.82873
691.192	3.30188
694.567	8.30444
697.942	0.382385
701.317	5.83984
704.692	2.51349
708.067	3.36127
711.441	6.80359
714.816	6.03943
718.191	3.50507
721.566	6.60815
724.941	7.02289
728.316	6.9231
731.69	6.79956
735.065	0.774536
738.44	0.463928
741.815	3.46728
745.19	2.93463
748.564	0.358704
751.939	1.64667
755.314	3.06073
758.689	1.08301
762.064	4.80963
765.438	5.3551
768.813	2.80737
772.188	8.6524
775.563	5.42212
778.938	6.83868
782.313	11.9163
785.687	8.67133
789.062	19.0115
792.437	23.6439
795.812	23.444
799.187	24.5845
802.562	20.8697
805.936	27.2582
809.311	31.6746
812.686	38.2007
816.061	41.7224
819.436	48.2662
822.81	68.0452
826.185	79.0015
829.56	94.1843
832.935	91.128
836.31	97.475
839.684	89.3621
843.059	76.1022
846.434	64.2843
849.809	57.7428
853.184	55.3057
856.558	41.2816
859.933	37.8484
863.308	27.5874
866.683	24.7437
870.058	23.5478
873.433	12.1534
876.807	11.9371
880.182	10.2889
883.557	4.75207
886.932	4.39374
890.307	6.02484
893.682	1.3446
897.056	3.41565
900.431	2.62488
903.806	3.87927
907.181	4.92932
910.556	3.47321
913.93	3.17914
917.305	2.61456
920.68	5.46118
924.055	4.46454
927.43	2.32794
930.804	7.12549
934.179	4.51825
937.554	4.72424
940.929	4.48743
944.304	6.16785
947.679	0.606445
951.053	5.64435
954.428	7.51764
957.803	6.58984
961.178	7.4917
964.553	19.0982
967.928	30.8384
971.302	39.2081
974.677	49.619
978.052	53.4344
981.427	43.9802
984.802	33.9789
988.176	24.9195
991.551	14.472
994.926	9.19873
998.301	8.73657
1001.68	4.37146
1005.05	1.89014
1008.42	3.91913
1011.8	2.24133
1015.17	4.99554
1018.55	6.78363
1021.92	3.60785
1025.3	6.30695
1028.67	4.93634
1032.05	3.43054
1035.42	6.487
1038.8	7.31885
1042.17	5.41797
1045.55	10.1101
1048.92	6.80371
1052.3	3.52386
1055.67	6.76337
1059.05	6.45294
1062.42	2.99939
1065.8	5.14728
1069.17	4.56903
1072.55	0.018982
1075.92	6.86664
1079.3	3.7583
1082.67	4.02576
1086.05	9.78998
1089.42	4.64356
1092.8	2.95819
1096.17	0.221252
1099.55	0.950317
1102.92	3.10754
1106.3	3.71973
1109.67	4.96234
1113.05	1.77393
1116.42	3.47595
1119.79	1.21094
1123.17	2.75885
1126.54	4.20044
1129.92	2.13611
1133.29	0.212646
1136.67	5.83704
1140.04	10.6143
1143.42	7.52875
1146.79	8.07147
1150.17	4.0434
1153.54	2.65424
1156.92	5.05279
1160.29	4.50238
1163.67	2.55719
1167.04	7.73395
1170.42	3.9162
1173.79	9.9859
1177.17	5.68011
1180.54	4.89911
1183.92	7.2525
1187.29	3.84686
1190.66	3.23395
1194.04	3.68347
1197.41	3.17304
1200.79	5.46027
1204.16	2.26654
1207.54	1.35052
1210.91	4.70734
1214.29	0.3255
1217.66	2.98413
1221.04	2.69
1224.41	4.11597
1227.79	5.22345
1231.16	4.01733
1234.54	1.14673
1237.91	0.670837
1241.29	2.27533
1244.66	2.45325
1248.04	0.072693
1251.41	3.90192
1254.79	3.64655
1258.16	1.06836
1261.54	2.94531
1264.91	5.51178
1268.29	1.40729
1271.66	4.74249
1275.04	1.7273
1278.41	3.31702
1281.79	0.449707
