Measurement: Raman, 785 nm, unoriented, Raman Data Processed
Mineral: Ushkovite
Rruff sample: R060954
Ideal chemistry: MgFe^3+^_2_(PO_4_)_2_(OH)_2_8H_2_O
Locality: Linópolis, Minas Gerais, Brazil
Source: Bob Jenkins
Description: Radial aggregate of pale brownish yellow bladed crystals, associated with radial aggregate of pale green atencioite, dark green rockbridgeite, and lefontite R140074
Measured chemistry: Mg_1.03_Fe^3+^_2.08_(P_2.00_O_4_)_2_(OH)_2_·8H_2_O
Raman shift (cm-1)	intensity
190.953	0
193.845	424.094
196.738	722.965
199.631	697.777
202.524	523.887
205.416	306.824
208.309	41.2734
211.202	112.406
214.094	45.9102
216.987	337.543
219.88	255.769
222.773	248.93
225.665	129.258
228.558	8.01953
231.451	55
234.343	248.367
237.236	545.848
240.129	524.336
243.021	644.106
245.914	709.516
248.807	933.473
251.7	1522.94
254.592	2698.59
257.485	4085.66
260.378	5357.58
263.27	5650.71
266.163	4644.47
269.056	3064.92
271.948	2057.11
274.841	1457.36
277.734	1197.7
280.627	1165.14
283.519	1084.6
286.412	1151.1
289.305	664.309
292.197	302.098
295.09	142.324
297.983	157.117
300.875	302.887
303.768	674.305
306.661	740.219
309.553	598.762
312.446	290.094
315.339	140.562
318.231	28.2109
321.124	285.648
324.017	396.406
326.91	527.746
329.802	715.148
332.695	551.082
335.588	335.211
338.48	94.6797
341.373	184.102
344.266	72.3906
347.159	171.879
350.051	228.07
352.944	449.711
355.837	327.672
358.729	95.7148
361.622	107.551
364.515	73.0195
367.407	23.543
370.3	322.133
373.193	523.043
376.086	546.035
378.978	541.008
381.871	228.602
384.764	111.676
387.656	30.6133
390.549	319.75
393.442	542.711
396.334	725.609
399.227	824.367
402.12	681.473
405.012	681.961
407.905	570.539
410.798	530.418
413.691	821.203
416.583	738.902
419.476	999.199
422.369	579.043
425.261	474.801
428.154	200.269
431.047	174.914
433.94	65.2852
436.832	209.285
439.725	169.324
442.618	297.121
445.51	203.574
448.403	93.1602
451.296	124.426
454.188	42.0273
457.081	47.5625
459.974	64.9297
462.866	377.57
465.759	370.555
468.652	351.406
471.545	339.828
474.437	200.348
477.33	108.691
480.223	33.543
483.115	92.3125
486.008	45.9883
488.901	293.512
491.793	305.641
494.686	248.996
497.579	127.098
500.471	205.773
503.364	110.41
506.257	153.914
509.15	288.184
512.042	255.18
514.935	329.547
517.828	385.18
520.72	438.109
523.613	319.75
526.506	431.496
529.399	334.328
532.291	403.231
535.184	487.242
538.077	518.945
540.969	513.715
543.862	323.332
546.755	247.992
549.647	279.387
552.54	272.602
555.433	350.891
558.326	329.711
561.218	451.07
564.111	311.769
567.004	237.812
569.896	153.777
572.789	122.926
575.682	75.9766
578.574	48.1484
581.467	183.125
584.36	180.863
587.252	116.328
590.145	54.6562
593.038	39.4531
595.931	44.2578
598.823	147.5
601.716	252.398
604.609	246.742
607.501	402.285
610.394	367.246
613.287	442.043
616.179	331.906
619.072	379.297
621.965	437.535
624.857	594.469
627.75	556.363
630.643	507.043
633.536	545.453
636.428	602.766
639.321	482.383
642.214	398.234
645.106	184.707
647.999	100.391
650.892	185.859
653.784	267.102
656.677	154.894
659.57	208.371
662.463	183.852
665.355	17.3164
668.248	135.836
671.141	160.312
674.033	300.469
676.926	261.922
679.819	236.676
682.712	262.328
685.604	354.711
688.497	485.805
691.39	765.137
694.282	924.172
697.175	1318.06
700.068	1477.84
702.96	1382.39
705.853	1066.15
708.746	803.106
711.639	511.422
714.531	442.965
717.424	270.609
720.317	254.789
723.209	210.652
726.102	69.4766
728.995	56.4336
731.887	122.088
734.78	20.6309
737.673	137.315
740.566	175.484
743.458	365.779
746.351	379.715
749.244	336.254
752.136	353.977
755.029	390.383
757.922	296.084
760.814	352.606
763.707	259.576
766.6	236.393
769.492	86.1543
772.385	226.117
775.278	93.2402
778.17	18.75
781.063	42.5781
783.956	91.9551
786.849	173.035
789.741	211.41
792.634	228.371
795.527	243.193
798.419	82.4219
801.312	195.699
804.205	211.389
807.097	212.838
809.99	321.428
812.883	311.57
815.776	310.49
818.668	352.643
821.561	119.285
824.454	167.818
827.346	244.975
830.239	115.744
833.132	214.397
836.024	86.9902
838.917	60.1582
841.81	40.4844
844.703	79.9219
847.595	69.5918
850.488	35.6738
853.381	92.4434
856.273	119.533
859.166	56.3828
862.059	73.2793
864.952	58.2617
867.844	66.3086
870.737	63.7266
873.63	14.748
876.522	53.8164
879.415	250.023
882.308	130.768
885.2	246.619
888.093	197.805
890.986	166.102
893.879	179.932
896.771	247.082
899.664	196.606
902.557	171.66
905.449	382.576
908.342	334.315
911.235	308.805
914.127	386.252
917.02	210.039
919.913	254.717
922.806	205.815
925.698	278.938
928.591	187.33
931.484	236.019
934.376	330.279
937.269	121.203
940.162	222.6
943.054	156.389
945.947	43.7441
948.84	130.623
951.732	93.2246
954.625	222.859
957.518	91.7324
960.41	141.748
963.303	119.994
966.196	184.906
969.089	97.9102
971.981	129.152
974.874	140.658
977.767	121.133
980.659	88.4219
983.552	82.6914
986.445	61.1309
989.337	157.984
992.23	35.2754
995.123	48.4102
998.016	175.693
1000.91	139.412
1003.8	200.684
1006.69	108.699
1009.59	114.248
1012.48	74.084
1015.37	163.537
1018.26	11.3809
1021.16	61.6641
1024.05	53.0098
1026.94	42.2441
1029.84	202.172
1032.73	100.356
1035.62	134.373
1038.51	96.7871
1041.41	128.67
1044.3	110.818
1047.19	212.697
1050.08	188.18
1052.98	300.389
1055.87	312.144
1058.76	286.029
1061.65	446.338
1064.55	266.266
1067.44	284.117
1070.33	114.623
1073.23	209.459
1076.12	183.752
1079.01	119.09
1081.9	136.65
1084.8	21.1074
1087.69	63.3047
1090.58	114.438
1093.47	230.961
1096.37	156.06
1099.26	57.6699
1102.15	8.97656
1105.05	29.3809
1107.94	65.0098
1110.83	26.6191
1113.72	176.803
1116.62	270.17
1119.51	78.4922
1122.4	183.856
1125.29	173.603
1128.19	90.5742
1131.08	147.035
1133.97	68.2461
1136.87	5.95312
1139.76	24.957
1142.65	46.8672
1145.54	59.8301
1148.44	6.06055
1151.33	75.3672
1154.22	38.6523
1157.11	143.775
1160.01	119.299
1162.9	175.156
1165.79	85.7812
1168.68	127.189
1171.58	101.258
1174.47	46.0059
1177.36	18.2109
1180.26	71.0644
1183.15	69.6289
1186.04	90.3926
1188.93	125.947
1191.83	128.592
1194.72	115.826
1197.61	64.7129
1200.51	120.723
1203.4	16.6191
1206.29	34.8223
1209.18	39.3281
1212.08	160.275
1214.97	145.654
1217.86	114.525
1220.75	143.426
1223.65	199.916
1226.54	114.713
1229.43	113.106
1232.32	131.022
1235.22	116.965
1238.11	76.0547
1241	44.6816
1243.89	124.643
1246.79	137.066
1249.68	96.7793
1252.57	104.619
1255.47	27.1094
1258.36	13.1152
1261.25	225.621
1264.14	147.232
1267.04	140.092
