Measurement: Raman, 532 nm, unoriented, Raman Data Processed
Mineral: Wangdaodeite
Rruff sample: R150142
Ideal chemistry: Fe^2+^Ti^4+^O_3_
Locality: Suizhou L6 chondrite, Dayanpo, 12.5 km southeast of the city of Suizhou, Hubei Province, China (35°18’N, 113°35’E)
Source: Xiande Xie and Xiangping Gu
Description: Type sample. Aggregates of irregular black grains, ranging from 2 to 18 μm in diameter, composed of nano-sized crystals (10-80 nm), in shocked veins associated with xieite, ringwoodite, majorite, olivine, pyroxene, maskelynite, kamacite, troilite.
Measured chemistry: (Fe_0.849_Mg_0.096_Mn_0.063_)_Σ1.008_(Ti_0.987_Cr_0.001_Al_0.002_)_Σ0.994_O_2.998_
Raman shift (cm-1)	intensity
100	2366.43
105.292	2395.82
110.585	2558.83
115.877	2652.45
121.17	2699.43
126.462	2707.7
131.755	2729.68
137.047	2815.96
142.34	2904.63
147.632	2965.71
152.925	3120.77
158.217	3211.08
163.51	3282.35
168.802	3314.03
174.095	3372.12
179.387	3365.3
184.68	3376.58
189.972	3320.03
195.265	3161.02
200.557	2979.84
205.85	2982.24
211.142	2955.48
216.435	2924.86
221.727	2909.27
227.019	2932.7
232.312	2829.08
237.604	2742.06
242.897	2639.35
248.189	2587.27
253.482	2579.1
258.774	2580.34
264.067	2595.66
269.359	2568.87
274.652	2597.71
279.944	2593.39
285.237	2586.64
290.529	2529.65
295.822	2421.84
301.114	2345.19
306.407	2314.47
311.699	2318.77
316.992	2281.5
322.284	2286.53
327.577	2356.59
332.869	2373.76
338.162	2412.99
343.454	2333.86
348.747	2281.72
354.039	2250.46
359.331	2184.89
364.624	2208.36
369.916	2154.55
375.209	2156.87
380.501	2192.46
385.794	2142.63
391.086	2151.6
396.379	2132.08
401.671	2140.96
406.964	2119.89
412.256	2145.17
417.549	2137.9
422.841	2103.74
428.134	2125.24
433.426	2065.42
438.719	2027.92
444.011	1968.52
449.304	2018.14
454.596	2004.3
459.889	2027.12
465.181	2018.13
470.474	1984.29
475.766	1967.97
481.058	2009.11
486.351	1980.16
491.643	1934.76
496.936	1930.98
502.228	1912.31
507.521	1888.19
512.813	1853.98
518.106	1923.28
523.398	1883.53
528.691	1923.87
533.983	1903.48
539.276	1999.4
544.568	2018.09
549.861	2047.23
555.153	2039.56
560.446	2112.52
565.738	2080.27
571.031	2082.02
576.323	2087.53
581.616	2048.5
586.908	2027.54
592.201	1987.67
597.493	2029.03
602.786	2008.84
608.078	1975.33
613.37	1978.96
618.663	1929.01
623.955	1936.21
629.248	1929.26
634.54	1931.11
639.833	2012.02
645.125	2006.11
650.418	2037.4
655.71	2059.41
661.003	2152.46
666.295	2159.2
671.588	2240.46
676.88	2249.94
682.173	2280.03
687.465	2294.43
692.758	2299.31
698.05	2248.96
703.343	2235.21
708.635	2237.13
713.928	2184.25
719.22	2172.88
724.513	2136.16
729.805	2160.27
735.097	2221.61
740.39	2220.38
745.682	2201.68
750.975	2184.05
756.267	2130.08
761.56	2177.94
766.852	2054.71
772.145	1960.72
777.437	1910.37
782.73	1879.29
788.022	1830.77
793.315	1796.42
798.607	1757.01
803.9	1723.43
809.192	1707.3
814.485	1676.66
819.777	1638.46
825.07	1673.15
830.362	1631.26
835.655	1628.49
840.947	1587.98
846.24	1613.68
851.532	1608.23
856.825	1613.08
862.117	1592.78
867.409	1591.35
872.702	1596.95
877.994	1607.52
883.287	1548.88
888.579	1552.04
893.872	1579.13
899.164	1589.44
904.457	1561.81
909.749	1578.22
915.042	1547.89
920.334	1515.94
925.627	1476.3
930.919	1439.09
936.212	1452.83
941.504	1448.23
946.797	1384.07
952.089	1361.5
957.382	1367.86
962.674	1312.33
967.967	1349.32
973.259	1278.92
978.552	1293.31
983.844	1283.95
989.136	1301.19
994.429	1261.91
999.721	1273.71
1005.01	1283.39
1010.31	1289.34
1015.6	1275.43
1020.89	1285.05
1026.18	1275.03
1031.48	1315.45
1036.77	1308.12
1042.06	1304.14
1047.35	1307.6
1052.65	1362.48
1057.94	1323.56
1063.23	1338.08
1068.52	1354.16
1073.82	1302.58
1079.11	1311.23
1084.4	1306.73
1089.69	1290.62
1094.99	1310.03
1100.28	1266.32
1105.57	1252.71
1110.86	1250.78
1116.16	1251.14
1121.45	1244.92
1126.74	1248.63
1132.03	1271.87
1137.33	1263.84
1142.62	1280.04
1147.91	1298.9
1153.2	1297.34
1158.5	1320.54
1163.79	1327.21
1169.08	1345.92
1174.37	1322.69
1179.67	1333.19
1184.96	1331.44
1190.25	1332.95
1195.54	1321.08
1200.84	1282.56
1206.13	1288.34
1211.42	1277.03
1216.71	1278.83
1222.01	1256.04
1227.3	1273.57
1232.59	1256.68
1237.88	1243.29
1243.18	1259.82
1248.47	1248.39
1253.76	1245.64
1259.05	1263.65
1264.35	1239.15
1269.64	1274.68
1274.93	1299.92
1280.22	1311.53
1285.52	1304.52
1290.81	1343.3
1296.1	1314.62
1301.39	1310.12
1306.69	1318.73
1311.98	1346.14
1317.27	1326.8
1322.56	1344.55
1327.86	1310.1
1333.15	1293.4
1338.44	1321.66
1343.73	1303.84
1349.03	1251.77
1354.32	1308.26
1359.61	1313.19
1364.9	1294.88
1370.19	1274.34
1375.49	1287.33
1380.78	1312.28
1386.07	1305.02
1391.36	1328.97
1396.66	1310.91
1401.95	1312.22
1407.24	1315.11
1412.53	1305.5
1417.83	1303.89
1423.12	1290.17
1428.41	1324.12
1433.7	1268
1439	1266.4
1444.29	1282.11
1449.58	1237.87
1454.87	1228.31
1460.17	1257.44
1465.46	1237.91
1470.75	1232.53
1476.04	1215.23
1481.34	1220.99
1486.63	1218.08
1491.92	1255.33
1497.21	1205.81
1502.51	1244.22
1507.8	1202.34
1513.09	1248.34
1518.38	1211.96
1523.68	1226.53
1528.97	1205.61
1534.26	1201.84
1539.55	1229.07
1544.85	1209.16
1550.14	1229.21
1555.43	1228.91
1560.72	1197.61
1566.02	1200.37
1571.31	1184.14
1576.6	1138.59
1581.89	1165.69
1587.19	1129.9
1592.48	1134.31
1597.77	1158.74
1603.06	1132.3
1608.36	1137.24
1613.65	1126.58
1618.94	1121.54
1624.23	1123.71
1629.53	1134.88
1634.82	1130.92
1640.11	1144.57
1645.4	1164.39
1650.7	1134.98
1655.99	1183.8
1661.28	1178.81
1666.57	1149.42
1671.87	1157.2
1677.16	1143.76
1682.45	1132.37
1687.74	1149.06
1693.04	1122.47
1698.33	1112.97
1703.62	1115.78
1708.91	1093.32
1714.21	1103.64
1719.5	1131.99
1724.79	1135.22
1730.08	1112.77
1735.38	1108.17
1740.67	1102.15
1745.96	1093.81
1751.25	1105.72
1756.55	1108.96
1761.84	1102.72
1767.13	1123.69
1772.42	1117.39
1777.72	1109.12
1783.01	1088.4
1788.3	1091.85
1793.59	1131.94
1798.89	1116.33
1804.18	1078.6
1809.47	1077.63
1814.76	1058.77
1820.06	1064.09
1825.35	1028.18
1830.64	1033.65
1835.93	986.648
1841.23	1018.64
1846.52	1062.62
1851.81	1028.06
1857.1	1023.62
1862.4	998.641
1867.69	1016.48
1872.98	1059.93
1878.27	1072.07
1883.57	1035.43
1888.86	1066.45
1894.15	1085.17
1899.44	1050.41
1904.74	1072.67
1910.03	1082.2
1915.32	1075.74
1920.61	1094.15
1925.91	1106.19
1931.2	1142.19
1936.49	1109.23
1941.78	1077.35
1947.08	1103.02
1952.37	1084.85
1957.66	1096.51
1962.95	1102.13
1968.25	1056.2
1973.54	1086.19
1978.83	1096.66
1984.12	1088.5
1989.41	1089.36
1994.71	1077.22
2000	1080.97
