Measurement: Raman, 632 nm, unoriented, Raman Data Processed
Mineral: Wangdaodeite
Rruff sample: R150142
Ideal chemistry: Fe^2+^Ti^4+^O_3_
Locality: Suizhou L6 chondrite, Dayanpo, 12.5 km southeast of the city of Suizhou, Hubei Province, China (35°18’N, 113°35’E)
Source: Xiande Xie and Xiangping Gu
Description: Type sample. Aggregates of irregular black grains, ranging from 2 to 18 μm in diameter, composed of nano-sized crystals (10-80 nm), in shocked veins associated with xieite, ringwoodite, majorite, olivine, pyroxene, maskelynite, kamacite, troilite.
Measured chemistry: (Fe_0.849_Mg_0.096_Mn_0.063_)_Σ1.008_(Ti_0.987_Cr_0.001_Al_0.002_)_Σ0.994_O_2.998_
Raman shift (cm-1)	intensity
100	3297.66
105.229	3468.98
110.459	3620.1
115.688	3730.7
120.917	3850.69
126.147	3890.14
131.376	4022.33
136.606	4015.13
141.835	4240.99
147.064	4330.07
152.294	4479.53
157.523	4600.87
162.752	4854.93
167.982	4951.29
173.211	5053.54
178.44	5162.8
183.67	5112.71
188.899	4900.6
194.128	4670.09
199.358	4479.59
204.587	4309.8
209.817	4212.07
215.046	4160.75
220.275	4238.38
225.505	4211.03
230.734	4057.21
235.963	3816.31
241.193	3545.81
246.422	3469.26
251.651	3359.14
256.881	3282.35
262.11	3232.92
267.339	3170.48
272.569	3104.17
277.798	3001.37
283.028	3069.39
288.257	3070.86
293.486	3064.28
298.716	3003.02
303.945	2979.99
309.174	2949.59
314.404	2963.97
319.633	3013.75
324.862	2990.12
330.092	3010.06
335.321	3100.25
340.55	3108.74
345.78	3109.58
351.009	3168.08
356.239	3187.54
361.468	3235.09
366.697	3349.13
371.927	3420.83
377.156	3415.32
382.385	3342.92
387.615	3291.1
392.844	3219.81
398.073	3233.46
403.303	3207.9
408.532	3178.52
413.761	3160.51
418.991	3155.81
424.22	3116.83
429.45	3092.94
434.679	3064.62
439.908	2971.02
445.138	3003.49
450.367	2964.74
455.596	2965.61
460.826	2925.1
466.055	2844.8
471.284	2936.68
476.514	2866.81
481.743	2906.37
486.972	2861.48
492.202	2904.81
497.431	2852.59
502.661	2896
507.89	2991.26
513.119	2942.88
518.349	2988.58
523.578	3041.73
528.807	3131.31
534.037	3222.62
539.266	3240.54
544.495	3280.77
549.725	3345.98
554.954	3362.12
560.183	3387.55
565.413	3367.94
570.642	3396.83
575.872	3301.86
581.101	3329.88
586.33	3300.07
591.56	3278.31
596.789	3199.11
602.018	3272.53
607.248	3245.17
612.477	3220.58
617.706	3280.31
622.936	3242.97
628.165	3324.91
633.394	3290.93
638.624	3365.18
643.853	3411.95
649.083	3522.46
654.312	3546.32
659.541	3732.74
664.771	3947.29
670	4208.93
675.229	4339.32
680.459	4557.11
685.688	4595.01
690.917	4552.45
696.147	4366.29
701.376	4167.9
706.606	3996.88
711.835	3861.41
717.064	3738.2
722.294	3736.96
727.523	3656.45
732.752	3527.83
737.982	3531.73
743.211	3421.08
748.44	3381.65
753.67	3293.08
758.899	3154.52
764.128	3008.42
769.358	2875.13
774.587	2753.78
779.817	2646.61
785.046	2554.56
790.275	2368.29
795.505	2386.53
800.734	2279.37
805.963	2192.4
811.193	2120.65
816.422	2122.31
821.651	2055.48
826.881	2040.97
832.11	2038.02
837.339	2064.63
842.569	1974.62
847.798	1971.6
853.028	1980.76
858.257	1962.75
863.486	1938.09
868.716	1971.24
873.945	1898.72
879.174	1893.85
884.404	1874.46
889.633	1842.29
894.862	1861.4
900.092	1822.45
905.321	1791.92
910.55	1771.52
915.78	1798.86
921.009	1744.04
926.239	1774.09
931.468	1724.25
936.697	1751.43
941.927	1736.66
947.156	1704.51
952.385	1725.05
957.615	1719.55
962.844	1684.26
968.073	1654.35
973.303	1669.54
978.532	1646.46
983.761	1639.77
988.991	1631.37
994.22	1599.15
999.45	1630.84
1004.68	1584.49
1009.91	1610.83
1015.14	1594.64
1020.37	1627.45
1025.6	1632.81
1030.83	1636.92
1036.06	1610.14
1041.28	1586.47
1046.51	1610.8
1051.74	1601.88
1056.97	1577.13
1062.2	1560.26
1067.43	1593.04
1072.66	1601.03
1077.89	1540.66
1083.12	1562.87
1088.35	1552.59
1093.58	1550.8
1098.81	1540.77
1104.04	1572.66
1109.27	1551.31
1114.5	1561.92
1119.72	1523.64
1124.95	1500.88
1130.18	1532.05
1135.41	1528.27
1140.64	1532.11
1145.87	1518.4
1151.1	1489.19
1156.33	1486.29
1161.56	1491.16
1166.79	1503.97
1172.02	1491.31
1177.25	1475.19
1182.48	1477.78
1187.71	1479.73
1192.94	1483.22
1198.17	1472.9
1203.39	1456.07
1208.62	1481
1213.85	1502.68
1219.08	1504.56
1224.31	1463.31
1229.54	1478.45
1234.77	1485.44
1240	1450.07
1245.23	1443.18
1250.46	1456.16
1255.69	1445.03
1260.92	1416.55
1266.15	1418.66
1271.38	1436.2
1276.61	1407.92
1281.83	1440.45
1287.06	1446.23
1292.29	1452.76
1297.52	1452.61
1302.75	1465.93
1307.98	1462.59
1313.21	1433.03
1318.44	1444.87
1323.67	1427.64
1328.9	1486.29
1334.13	1449.34
1339.36	1417.03
1344.59	1409.46
1349.82	1422.38
1355.05	1415.83
1360.28	1418.73
1365.5	1410.72
1370.73	1399.94
1375.96	1409.64
1381.19	1437.35
1386.42	1433.09
1391.65	1456.89
1396.88	1460.6
1402.11	1434.94
1407.34	1422.94
1412.57	1416.24
1417.8	1390.88
1423.03	1396.86
1428.26	1403.74
1433.49	1405.83
1438.72	1395.1
1443.94	1377.27
1449.17	1364.94
1454.4	1362.16
1459.63	1398.5
1464.86	1362.3
1470.09	1358.24
1475.32	1369.22
1480.55	1338.83
1485.78	1336.49
1491.01	1334.69
1496.24	1320.46
1501.47	1295.27
1506.7	1326.19
1511.93	1306.33
1517.16	1302.36
1522.39	1257.14
1527.61	1281.29
1532.84	1266.2
1538.07	1235.05
1543.3	1267.19
1548.53	1247.36
1553.76	1216.54
1558.99	1236.96
1564.22	1229
1569.45	1209.91
1574.68	1207.15
1579.91	1184
1585.14	1216.11
1590.37	1207.42
1595.6	1185.21
1600.83	1211.86
1606.06	1205.78
1611.28	1196.44
1616.51	1201.92
1621.74	1189.81
1626.97	1185.93
1632.2	1183.83
1637.43	1186.5
1642.66	1169.9
1647.89	1165.2
1653.12	1115.84
1658.35	1148.79
1663.58	1173.62
1668.81	1133.02
1674.04	1116.96
1679.27	1147.65
1684.5	1128.74
1689.72	1146.78
1694.95	1123.14
1700.18	1127.92
1705.41	1098.63
1710.64	1123.77
1715.87	1104.7
1721.1	1135.51
1726.33	1103.33
1731.56	1082.31
1736.79	1104.58
1742.02	1105.44
1747.25	1068.5
1752.48	1059.93
1757.71	1073.29
1762.94	1088.78
1768.17	1108.63
1773.39	1063.73
1778.62	1050.42
1783.85	1069.7
1789.08	1082.56
1794.31	1081.53
1799.54	1070.56
1804.77	1025.5
1810	1063.9
1815.23	1061.3
1820.46	1045.02
1825.69	1099.42
1830.92	1070.89
1836.15	1071.33
1841.38	1079.08
1846.61	1040.7
1851.83	1056.93
1857.06	1071.14
1862.29	1029.78
1867.52	990.491
1872.75	998.68
1877.98	1007.05
1883.21	1018.43
1888.44	988.031
1893.67	1030.21
1898.9	1017.22
1904.13	1003.42
1909.36	995.898
1914.59	1003.47
1919.82	1028.18
1925.05	1040.3
1930.28	1035.69
1935.5	998.391
1940.73	1023.59
1945.96	984.435
1951.19	994.706
1956.42	972.766
1961.65	1014.66
1966.88	959.767
1972.11	1032.14
1977.34	960.264
1982.57	950.359
1987.8	987.437
1993.03	915.707
1998.26	966.953
