Measurement: Raman, 780 nm, unoriented, Raman Data Processed
Mineral: Yeatmanite
Rruff sample: R141001
Ideal chemistry: Zn^2+^_6_Mn^2+^_9_Sb^5+^_2_O_12_(SiO_4_)_4_
Locality: 1500 foot level, Sterling mine, Sterling Hill, Ogdensburg, Franklin Mining District, Sussex County, New Jersey, USA
Source: Rock Currier
Description: Thin brown or grey platy crystals, associated with yellow adelite. Twinned by a 2-fold around (001). Previously published structure is probably incorrect.
Raman shift (cm-1)	intensity
93.8499	0
97.2247	20.7256
100.6	32.8833
103.974	102.637
107.349	43.2144
110.724	0.077148
114.099	8.09766
117.474	23.8677
120.848	37.7778
124.223	51.9619
127.598	36.9512
130.973	27.9883
134.348	14.7612
137.722	4.65088
141.097	4.9209
144.472	3.03857
147.847	7.50781
151.222	1.26367
154.597	18.9658
157.971	1.29736
161.346	28.522
164.721	25.2578
168.096	27.4033
171.471	34.5889
174.845	31.0054
178.22	26.2144
181.595	41.4277
184.97	43.2817
188.345	63.2761
191.72	59.2451
195.094	62.3381
198.469	59.4407
201.844	40.5996
205.219	40.0432
208.594	16.6538
211.969	13.8462
215.343	16.8857
218.718	8.27734
222.093	16.3689
225.468	9.73901
228.843	8.47485
232.217	8.60083
235.592	17.5789
238.967	13.6033
242.342	12.4766
245.717	20.3547
249.091	20.4265
252.466	11.7246
255.841	27.2339
259.216	30.9951
262.591	23.6939
265.966	22.1116
269.34	25.0798
272.715	35.1616
276.09	42.645
279.465	49.4556
282.84	39.3088
286.214	45.426
289.589	44.8013
292.964	38.9434
296.339	30.2031
299.714	40.6194
303.089	25.7417
306.463	21.439
309.838	1.26856
313.213	13.0418
316.588	7.7832
319.963	5.40869
323.337	4.88208
326.712	5.60986
330.087	6.02344
333.462	6.7666
336.837	4.05566
340.212	1.7229
343.586	5.91553
346.961	3.08423
350.336	4.56567
353.711	13.677
357.086	5.04517
360.46	17.0496
363.835	3.82593
367.21	26.4028
370.585	14.2842
373.96	10.5632
377.334	18.7136
380.709	14.729
384.084	5.86011
387.459	0.736816
390.834	10.3149
394.209	10.6028
397.583	2.26245
400.958	2.15063
404.333	7.55859
407.708	2.19922
411.083	11.5715
414.457	0.520508
417.832	11.3293
421.207	12.7541
424.582	18.7056
427.957	24.1465
431.332	12.3284
434.706	24.0855
438.081	28.0696
441.456	39.4441
444.831	32.772
448.206	35.3213
451.58	47.3567
454.955	49.5476
458.33	50.9968
461.705	55.5132
465.08	54.8281
468.455	52.5613
471.829	63.2671
475.204	59.4424
478.579	72.4702
481.954	65.0776
485.329	71.1116
488.704	62.3845
492.078	70.5105
495.453	59.0989
498.828	46.4436
502.203	51.803
505.577	46.0977
508.952	59.6375
512.327	74.4365
515.702	92.6304
519.077	120.693
522.452	128.79
525.826	110.927
529.201	76.6343
532.576	47.3596
535.951	37.7529
539.326	16.2031
542.701	13.5366
546.075	13.3296
549.45	19.5452
552.825	2.15478
556.2	9.29004
559.575	2.91455
562.949	4.41797
566.324	11.7622
569.699	15.1257
573.074	26.1445
576.449	29.949
579.823	19.3623
583.198	22.7283
586.573	21.0225
589.948	17.0981
593.323	8.13379
596.698	7.3374
600.072	4.72412
603.447	1.97168
606.822	10.6262
610.197	1.65625
613.572	13.3027
616.947	20.4675
620.321	49.7356
623.696	56.9456
627.071	76.769
630.446	59.3079
633.821	56.2769
637.195	54.7717
640.57	64.583
643.945	69.1719
647.32	76.9336
650.695	44.2732
654.069	36.5078
657.444	34.791
660.819	49.9145
664.194	86.5542
667.569	134.366
670.944	208.745
674.318	282.293
677.693	308.236
681.068	232.513
684.443	144.382
687.818	84.4939
691.192	56.6675
694.567	30.1694
697.942	24.5632
701.317	10.4944
704.692	7.94141
708.067	19.8533
711.441	6.51318
714.816	7.50952
718.191	3.31836
721.566	3.65308
724.941	0.401367
728.316	8.80908
731.69	0.55127
735.065	3.52881
738.44	1.74707
741.815	9.81299
745.19	2.97656
748.564	2.23144
751.939	3.26318
755.314	0.91748
758.689	5.83106
762.064	13.0825
765.438	10.1758
768.813	7.71167
772.188	4.13818
775.563	4.44922
778.938	1.94775
782.313	1.82715
785.687	8.50415
789.062	15.0122
792.437	11.1367
795.812	11.2593
799.187	6.19409
802.562	14.8748
805.936	9.47998
809.311	13.9717
812.686	15.7307
816.061	22.979
819.436	21.5674
822.81	23.8337
826.185	20.9426
829.56	13.1433
832.935	29.6914
836.31	22.4458
839.684	26.4014
843.059	33.6003
846.434	34.8543
849.809	42.7449
853.184	49.6248
856.558	65.5972
859.933	82.4067
863.308	89.8709
866.683	90.1775
870.058	89.436
873.433	81.7993
876.807	51.4331
880.182	46.1255
883.557	34.5586
886.932	16.8679
890.307	10.5986
893.682	3.06128
897.056	11.1668
900.431	2.51269
903.806	1.87549
907.181	0.105713
910.556	5.8125
913.93	0.622803
917.305	10.7812
920.68	1.7981
924.055	7.68994
927.43	17.5046
930.804	16.0544
934.179	14.0798
937.554	9.57837
940.929	2.70361
944.304	0.891602
947.679	2.62402
951.053	2.90576
954.428	2.18799
957.803	1.30444
961.178	1.51294
964.553	2.3418
967.928	3.83667
971.302	1.99463
974.677	0.341797
978.052	3.66919
981.427	4.49951
984.802	5.45947
988.176	8.19702
991.551	12.7085
994.926	4.69482
998.301	9.6394
1001.68	7.22607
1005.05	9.64526
1008.42	0.547852
1011.8	12.3438
1015.17	12.0781
1018.55	8.53247
1021.92	5.89502
1025.3	5.44897
1028.67	11.3572
1032.05	8.56909
1035.42	4.04712
1038.8	5.72534
1042.17	15.7822
1045.55	12.061
1048.92	2.69116
1052.3	13.2756
1055.67	15.3186
1059.05	12.1511
1062.42	14.0835
1065.8	19.1548
1069.17	12.7004
1072.55	4.21167
1075.92	6.93543
1079.3	6.84875
1082.67	13.3185
1086.05	13.2325
1089.42	7.42908
1092.8	3.38708
1096.17	4.328
1099.55	2.38001
1102.92	15.4965
1106.3	11.4747
1109.67	6.48657
1113.05	4.74365
1116.42	1.28943
1119.79	2.76245
1123.17	0.969116
1126.54	0.187622
1129.92	1.00879
1133.29	6.61646
1136.67	9.33289
1140.04	7.92981
1143.42	5.04224
1146.79	3.61633
1150.17	7.81531
1153.54	6.29114
1156.92	7.30493
1160.29	13.3366
1163.67	13.8586
1167.04	17.6268
1170.42	15.7678
1173.79	17.8754
1177.17	20.132
1180.54	10.9642
1183.92	12.6543
1187.29	9.48498
1190.66	13.3762
1194.04	11.3984
1197.41	9.98084
1200.79	10.0776
1204.16	10.014
1207.54	10.2866
1210.91	6.62537
1214.29	11.0256
1217.66	7.62305
1221.04	14.5049
1224.41	11.4905
1227.79	3.31555
1231.16	1.03735
1234.54	4.20935
1237.91	2.66443
1241.29	4.23498
1244.66	7.35815
1248.04	1.78064
1251.41	1.83398
1254.79	9.66235
1258.16	8.3468
1261.54	11.6713
1264.91	8.77734
1268.29	0.485718
1271.66	4.40454
1275.04	6.59656
1278.41	2.09998
1281.79	0.002808
